! File generated by DesignBuilder - 7.0.0.091 2021/08/24 - 22:14:00
! Source file: C:\Users\masato\Desktop\JSBC2018.dsb

! Geometry convention template : Simple
! Zone geometry and surface areas : 2-Outer
! Zone volume calculation method : 2-Outer
! Zone floor area calculation method : 2-Outer
! Window to wall ratio method : 1-Inner

Version, 9.4.0.001;                               !- Version Identifier

RunPeriod,                                        !- Annual simulation
   JSBC2018 (01-01:31-12),                        !- Location
   1,1, 2002,                                     !- Start Month , Day
   12,31, 2002,                                   !- End Month , Day
   ,                                              !- Day of Week for Start Day
   No,                                            !- Use weather file holidays/special day periods
   Yes,                                           !- Use WeatherFile DaylightSavingPeriod - will use daylight saving time in weather file
   Yes,                                           !- Apply Weekend Holiday Rule - will reassign weekend holidays to Monday
   Yes,                                           !- use weather file rain indicators
   Yes,                                           !- use weather file snow indicators
   No;                                            !- Treat Weather as Actual

! Hourly weather file: C:\ProgramData\DesignBuilder\Weather Data\Tokyo.epw

Site:Location,JSBC2018 (01-01:31-12)  (01-01:31-12),  !- Location Name
   35.7,                                          !- Latitude
   139.8,                                         !- Longitude
   9,                                             !- Time Zone
   0;                                             !- Elevation {m}

Site:GroundTemperature:BuildingSurface,           !- Annual ground temperatures - 1 value for each month
   18,                                            !- Jan ground temperature
   18,                                            !- Feb ground temperature
   18,                                            !- Mar ground temperature
   18,                                            !- Apr ground temperature
   18,                                            !- May ground temperature
   18,                                            !- Jun ground temperature
   18,                                            !- Jul ground temperature
   18,                                            !- Aug ground temperature
   18,                                            !- Sep ground temperature
   18,                                            !- Oct ground temperature
   18,                                            !- Nov ground temperature
   18;                                            !- Dec ground temperature

Site:GroundTemperature:Deep,                      !- Annual ground temperatures - 1 value for each month
   14,                                            !- Jan deep ground temperature
   14,                                            !- Feb deep ground temperature
   14,                                            !- Mar deep ground temperature
   14,                                            !- Apr deep ground temperature
   14,                                            !- May deep ground temperature
   14,                                            !- Jun deep ground temperature
   14,                                            !- Jul deep ground temperature
   14,                                            !- Aug deep ground temperature
   14,                                            !- Sep deep ground temperature
   14,                                            !- Oct deep ground temperature
   14,                                            !- Nov deep ground temperature
   14;                                            !- Dec deep ground temperature

Site:GroundTemperature:Shallow,                   !- Annual ground temperatures - 1 value for each month
   14,                                            !- Jan shallow ground temperature
   14,                                            !- Feb shallow ground temperature
   14,                                            !- Mar shallow ground temperature
   14,                                            !- Apr shallow ground temperature
   14,                                            !- May shallow ground temperature
   14,                                            !- Jun shallow ground temperature
   14,                                            !- Jul shallow ground temperature
   14,                                            !- Aug shallow ground temperature
   14,                                            !- Sep shallow ground temperature
   14,                                            !- Oct shallow ground temperature
   14,                                            !- Nov shallow ground temperature
   14;                                            !- Dec shallow ground temperature

Site:GroundTemperature:FCfactorMethod,            !- Annual ground temperatures - 1 value for each month
   2.14219236786825,                              !- January FCfactorMethod ground temperature {C}
   2.80489073702932,                              !- Februry FCfactorMethod ground temperature {C}
   6.98679427964703,                              !- March FCfactorMethod ground temperature {C}
   13.7999821922943,                              !- April FCfactorMethod ground temperature {C}
   21.3613515773637,                              !- May FCfactorMethod ground temperature {C}
   27.6366457963283,                              !- June FCfactorMethod ground temperature {C}
   30.9146131479331,                              !- July FCfactorMethod ground temperature {C}
   30.2927737283838,                              !- August FCfactorMethod ground temperature {C}
   25.9569754324446,                              !- September FCfactorMethod ground temperature {C}
   19.0785277503645,                              !- October FCfactorMethod ground temperature {C}
   11.5259740874942,                              !- November FCfactorMethod ground temperature {C}
   5.33716331886187;                              !- December FCfactorMethod ground temperature {C}

Site:GroundReflectance,                           !- Annual ground reflectances - 1 value for each month
   .1,                                            !- Jan ground reflectance
   .1,                                            !- Feb ground reflectance
   .1,                                            !- Mar ground reflectance
   .1,                                            !- Apr ground reflectance
   .1,                                            !- May ground reflectance
   .1,                                            !- Jun ground reflectance
   .1,                                            !- Jul ground reflectance
   .1,                                            !- Aug ground reflectance
   .1,                                            !- Sep ground reflectance
   .1,                                            !- Oct ground reflectance
   .1,                                            !- Nov ground reflectance
   .1;                                            !- Dec ground reflectance

Site:GroundReflectance:SnowModifier,
   2.0,                                           !- Ground Reflected Solar Modifier
   2.0;                                           !- Daylighting Ground Reflected Solar Modifier

SimulationControl,
   Yes,                                           !- Do the zone sizing calculation
   Yes,                                           !- Do the system sizing calculation
   No,                                            !- Do the plant sizing calculation
   No,                                            !- Do the design day calculation
   Yes;                                           !- Do the weather file calculation


SizingPeriod:DesignDay, Summer Design Day in JSBC2018 (01-01:31-12) Jul,  !- Design Day Name
   7,                                             !- Month
   15,                                            !- Day of Month
   SummerDesignDay,                               !- Day Type -- used for schedules
   33.3,                                          !- Maximum Dry-Bulb Temperature {C}
   5.8,                                           !- Daily Dry-Bulb Temperature Range {C}
   ,                                              !- Dry-Bulb Temperature Range Modifier Type
   ,                                              !- Dry-Bulb Temperature Range Modifier Schedule
   WetBulb,                                       !- Humidity Condition Type
   25,                                            !- Wetbulb at Maximum Dry-Bulb{C}
   ,                                              !- Humidity Condition Day Schedule Name
   ,                                              !- Humidity Ratio at Maximum Dry-Bulb
   ,                                              !- Enthalpy Ratio at Maximum Dry-Bulb
   ,                                              !- Daily Wet-Bulb Temperature Range
   101325,                                        !- Barometric Pressure {N/M**2}
   0,                                             !- Wind Speed {m/s}
   0,                                             !- Wind Direction {Degrees N=0, S=180}
   No,                                            !- Rain Indicator
   No,                                            !- Snow on ground indicator
   No,                                            !- Daylight Savings Time Indicator
   ASHRAEClearSky,                                !- Solar Model Indicator
   ,                                              !- Beam Solar Day Schedule Name
   ,                                              !- Diffuse Solar Day Schedule Name
   ,                                              !- ASHRAE Clear Sky Optical Depth for Beam Irradiance (taub)
   ,                                              !- ASHRAE Clear Sky Optical Depth for Diffuse Irradiance (taud)
   0.98;                                          !- Clearness {0.0 to 1.2}

SizingPeriod:DesignDay, Winter Design Day in JSBC2018 (01-01:31-12),  !- Design Day Name
   1,                                             !- Month
   15,                                            !- Day of Month
   WinterDesignDay,                               !- Day Type -- used for schedules
   0.9,                                           !- Max Dry-Bulb {C}
   0,                                             !- Daily Temp Range {C}
   ,                                              !- Dry-Bulb Temperature Range Modifier Type
   ,                                              !- Dry-Bulb Temperature Range Modifier Schedule
   WetBulb,                                       !- Humidity Condition Type
   0.9,                                           !- Wet-Bulb at Max {C}
   ,                                              !- Humidity Condition Day Schedule Name
   ,                                              !- Humidity Ratio at Maximum Dry-Bulb
   ,                                              !- Enthalpy Ratio at Maximum Dry-Bulb
   ,                                              !- Daily Wet-Bulb Temperature Range
   101325,                                        !- Barometric Pressure {N/M**2}
   9.3,                                           !- Wind Speed {M/Sec}
   0,                                             !- Wind Direction {Degrees N=0, S=180}
   No,                                            !- Rain Indicator
   No,                                            !- Snow on ground indicator
   No,                                            !- Daylight Savings Time Indicator
   ,                                              !- Solar Model Indicator
   ,                                              !- Beam Solar Day Schedule Name
   ,                                              !- Diffuse Solar Day Schedule Name
   ,                                              !- ASHRAE Clear Sky Optical Depth for Beam Irradiance (taub)
   ,                                              !- ASHRAE Clear Sky Optical Depth for Diffuse Irradiance (taud)
   0;                                             !- Clearness {0.0 to 1.2} - gives no sun (but does include long wave radiant heat exchange with sky)

Timestep, 2;                                      !- Timesteps/hour

ConvergenceLimits,
   1,                                             !- Minimum System Time Step (0=same as zone time step)
   25;                                            !- Maximum HVAC Iterations (1=min, 20=default)

ScheduleTypeLimits, Any Number;                         ! Not limited
ScheduleTypeLimits, Fraction,     0.0, 1.0, CONTINUOUS;
ScheduleTypeLimits, Temperature,  -60, 200, CONTINUOUS;
ScheduleTypeLimits, Control Type,   0,   4, DISCRETE;
ScheduleTypeLimits, On/Off,         0,   1, DISCRETE;

Schedule:Compact, 
      On,                                         ! Name
      Any Number,                                 ! Type
      Through: 12/31,                             ! Type
      For: AllDays,                               ! All days in year
      Until: 24:00,                               ! All hours in day
       1;     

Schedule:Compact, 
      Off,                                        ! Name
      Any Number,                                 ! Type
      Through: 12/31,                             ! Type
      For: AllDays,                               ! All days in year
      Until: 24:00,                               ! All hours in day
       0;     

Schedule:Compact, 
      Work efficiency,                            ! Name
      Any Number,                                 ! Type
      Through: 12/31,                             ! Type
      For: AllDays,                               ! All days in year
      Until: 24:00,                               ! All hours in day
       0;     

Schedule:Compact,
      OpaqueShade,                                ! Name
      Any Number,                                 ! Type
      Through: 12/31,                             ! Type
      For: AllDays,                               ! All days in year
      Until: 24:00,                               ! All hours in day
       0;     
       
Schedule:Compact,
    Zone Comfort Control Type Sched,              !- Name
    Control Type,                                 !- Schedule Type Limits Name
    Through: 12/31,                               !- Field 1
    For: AllDays,                                 !- Field 2
    Until: 24:00,                                 !- Field 3
    4;                                            !- Field 4

Schedule:Compact,
    Design Days Only,                             !- Name
    Any Number,                                   !- Schedule Type Limits Name
    Through: 12/31,                               !- Field 1
    For: SummerDesignDay WinterDesignDay,         !- Field 2
    Until: 24:00,                                 !- Field 3
    1,                                            !- Field 4
    For: AllOtherDays,                            !- Field 2
    Until: 24:00,                                 !- Field 3
    0;
      
! off heating day
Schedule:Day:Hourly,  0, Any Number,
   0,0,0,0,0,0,0,0,0,0,0,0,0,0,0,0,0,0,0,0,0,0,0,0;

! off cooling day
Schedule:Day:Hourly,  50, Any Number,
   50,50,50,50,50,50,50,50,50,50,50,50,50,50,50,50,50,50,50,50,50,50,50,50;

! used in seasonal schedules
Schedule:Day:Hourly,  Off, Fraction,
   0,0,0,0,0,0,0,0,0,0,0,0,0,0,0,0,0,0,0,0,0,0,0,0;

Schedule:Week:Daily, Off,
   Off,Off,Off,Off,
   Off,Off,Off,Off,
   Off,Off,Off,Off;

! -------------------- Control type schedules (for heating & cooling) ----------------------

Schedule:Day:Hourly, Summer Control Type Day Sch, Control Type,
   4,4,4,4,4,4,4,4,4,4,4,4,4,4,4,4,4,4,4,4,4,4,4,4;

Schedule:Day:Hourly, Winter Control Type Day Sch, Control Type,
   4,4,4,4,4,4,4,4,4,4,4,4,4,4,4,4,4,4,4,4,4,4,4,4;

Schedule:Day:Hourly, Summer Control Type Day Sch - cool, Control Type,
   2,2,2,2,2,2,2,2,2,2,2,2,2,2,2,2,2,2,2,2,2,2,2,2;

Schedule:Day:Hourly, Winter Control Type Day Sch - heat, Control Type,
   1,1,1,1,1,1,1,1,1,1,1,1,1,1,1,1,1,1,1,1,1,1,1,1;

Schedule:Week:Daily, Summer Control Type Week Sch,
   Summer Control Type Day Sch,Summer Control Type Day Sch,Summer Control Type Day Sch,
   Summer Control Type Day Sch,Summer Control Type Day Sch,Summer Control Type Day Sch,
   Summer Control Type Day Sch,Summer Control Type Day Sch,Summer Control Type Day Sch,
   Summer Control Type Day Sch,Summer Control Type Day Sch,Summer Control Type Day Sch;

Schedule:Week:Daily, Winter Control Type Week Sch,
   Winter Control Type Day Sch,Winter Control Type Day Sch,Winter Control Type Day Sch,
   Winter Control Type Day Sch,Winter Control Type Day Sch,Winter Control Type Day Sch,
   Winter Control Type Day Sch,Winter Control Type Day Sch,Winter Control Type Day Sch,
   Winter Control Type Day Sch,Winter Control Type Day Sch,Winter Control Type Day Sch;

Schedule:Week:Daily, Summer Control Type Week Sch - cool,
   Summer Control Type Day Sch - cool,Summer Control Type Day Sch - cool,Summer Control Type Day Sch - cool,
   Summer Control Type Day Sch - cool,Summer Control Type Day Sch - cool,Summer Control Type Day Sch - cool,
   Summer Control Type Day Sch - cool,Summer Control Type Day Sch - cool,Summer Control Type Day Sch - cool,
   Summer Control Type Day Sch - cool,Summer Control Type Day Sch - cool,Summer Control Type Day Sch - cool;

Schedule:Week:Daily, Winter Control Type Week Sch - heat,
   Winter Control Type Day Sch - heat,Winter Control Type Day Sch - heat,Winter Control Type Day Sch - heat,
   Winter Control Type Day Sch - heat,Winter Control Type Day Sch - heat,Winter Control Type Day Sch - heat,
   Winter Control Type Day Sch - heat,Winter Control Type Day Sch - heat,Winter Control Type Day Sch - heat,
   Winter Control Type Day Sch - heat,Winter Control Type Day Sch - heat,Winter Control Type Day Sch - heat;

!Material:InfraredTransparent,
!IRTMaterial; !- Name

!Construction,
!IRTSurface,  !- Name
!IRTMaterial; !- Outside Layer





Material:NoMass, 
LinearBridgingLayer,                  ! Material Name
Rough,                                ! Roughness
0.6267 ,                              ! Resistance {M**2K/W} will give Total Resistance 1
0.0100000 ,                           ! Thermal Absorptance
0.0100000 ,                           ! Solar Absorptance
0.0100000 ;                           ! Visible Absorptance

Construction,
LinearBridgingConstruction,           !- Name
LinearBridgingLayer;                  !- Layer

Schedule:Compact,
TypOperativeTempControlSch,
Temperature,
Through: 31 Dec,
For: SummerDesignDay WinterDesignDay,
Until: 24:00, 0.0,
For: AllOtherDays,
Until: 24:00, 0.5;

Schedule:Compact, 
      OnWinterDesignDay,                          ! Name
      Any Number,                                 
      Through: 12/31,                             
      For: WinterDesignDay,                       ! All days in year
      Until: 24:00, 1,
      For: AllOtherDays,
      Until: 24:00, 0;     

Schedule:Compact, 
      OnSummerDesignDay,                          ! Name
      Any Number,                                 
      Through: 12/31,                             
      For: SummerDesignDay,                       ! All days in year
      Until: 24:00, 1,
      For: AllOtherDays,
      Until: 24:00, 0;     

Material:InfraredTransparent,
IRTMaterial; !- Name

Construction,
IRTSurface,  !- Name
IRTMaterial; !- Outside Layer


RunPeriodControl:SpecialDays, New Years Day, 1 Jan, 3, Holiday;

RunPeriodControl:SpecialDays, Coming-of-Age Day, 9 Jan, 1, Holiday;

RunPeriodControl:SpecialDays, Vemal Equinox Day, 21 Mar, 1, Holiday;

RunPeriodControl:SpecialDays, Constitution Memorial Day, 3 May, 1, Holiday;

RunPeriodControl:SpecialDays, Greenery Day, 4 May, 1, Holiday;

RunPeriodControl:SpecialDays, Childrens Day, 5 May, 1, Holiday;

RunPeriodControl:SpecialDays, Marine Day, 17 Jul, 1, Holiday;

RunPeriodControl:SpecialDays, Respect for the Aged Day, 18 Sep, 1, Holiday;

RunPeriodControl:SpecialDays, Health-Sports Day, 9 Oct, 1, Holiday;

RunPeriodControl:SpecialDays, Culture Day, 3 Nov, 1, Holiday;

RunPeriodControl:SpecialDays, Labour Thanksgiving Day, 23 Nov, 1, Holiday;

RunPeriodControl:SpecialDays, Winter holiday, 29 Dec, 1, Holiday;

! Schedule: On 24/7
Schedule:Compact, 
On 24/7, 
Any Number,
Through: 12/31,
For: AllDays,   
Until: 24:00,   1 ;


! Schedule: Off 24/7
Schedule:Compact,
Off 24/7,
Any Number,
Through: 12/31,
For: AllDays,
Until: 24:00,  0  ;


! Schedule: Office_OpenOff_Occ
Schedule:Compact,
Office_OpenOff_Occ,
Fraction,
Through: 31 Dec,
For: Weekdays SummerDesignDay,
Until: 07:00, 0,
Until: 08:00, 0.25,
Until: 09:00, 0.5,
Until: 12:00, 1,
Until: 14:00, 0.75,
Until: 17:00, 1,
Until: 18:00, 0.5,
Until: 19:00, 0.25,
Until: 24:00, 0,
For: Weekends,
Until: 24:00, 0,
For: Holidays,
Until: 24:00, 0,
For: WinterDesignDay AllOtherDays,
Until: 24:00, 0;


! Schedule: Default Air Velocity for Comfort Calculations
Schedule:Compact, 
Default Air Velocity for Comfort Calculations, 
Any Number,
Through: 12/31,
For: AllDays,   
Until: 24:00,   0.1370 ;


! Schedule: JP Office - corridor occupants
Schedule:Compact,
JP Office - corridor occupants,
Fraction,
Through: 31 Dec,
For: Weekdays SummerDesignDay WinterDesignDay,
Until: 08:00,      0,
Until: 21:00,      1,
Until: 24:00,      0,
For: Weekends,
Until: 24:00,      0,
For: AllOtherDays,
Until: 24:00,      0     ;


! Schedule: JP Office - office equipments
Schedule:Compact,
JP Office - office equipments,
Fraction,
Through: 31 Dec,
For: Weekdays SummerDesignDay WinterDesignDay,
Until: 08:00,      0.25,
Until: 12:00,      1,
Until: 13:00,      0.8,
Until: 19:00,      1,
Until: 21:00,      0.5,
Until: 24:00,      0.25,
For: Weekends,
Until: 24:00,      0.25,
For: AllOtherDays,
Until: 24:00,      0.25     ;


! Schedule: JP Office - locker/storage occ.
Schedule:Compact,
JP Office - locker/storage occ.,
Fraction,
Through: 31 Dec,
For: Weekdays SummerDesignDay WinterDesignDay,
Until: 08:00,      0,
Until: 09:00,      1,
Until: 17:00,      0.4,
Until: 19:00,      0.7,
Until: 21:00,      0.4,
Until: 24:00,      0,
For: Weekends,
Until: 24:00,      0,
For: AllOtherDays,
Until: 24:00,      0     ;


! Schedule: JP Office - office lighting
Schedule:Compact,
JP Office - office lighting,
Fraction,
Through: 31 Dec,
For: Weekdays SummerDesignDay WinterDesignDay,
Until: 08:00,      0,
Until: 12:00,      1,
Until: 13:00,      0.5,
Until: 20:00,      1,
Until: 21:00,      0.8,
Until: 24:00,      0,
For: Weekends,
Until: 24:00,      0,
For: AllOtherDays,
Until: 24:00,      0     ;


! Schedule: JP Office - 8-21 Lighting
Schedule:Compact,
JP Office - 8-21 Lighting,
Fraction,
Through: 31 Dec,
For: Weekdays SummerDesignDay WinterDesignDay,
Until: 08:00,      0,
Until: 21:00,      1,
Until: 24:00,      0,
For: Weekends,
Until: 24:00,      0,
For: AllOtherDays,
Until: 24:00,      0     ;


! Schedule: JP Office - CMR occupants
Schedule:Compact,
JP Office - CMR occupants,
Fraction,
Through: 31 Dec,
For: Weekdays SummerDesignDay WinterDesignDay,
Until: 07:00,      0.5,
Until: 20:00,      1,
Until: 24:00,      0.5,
For: Weekends,
Until: 24:00,      0.5,
For: AllOtherDays,
Until: 24:00,      0.5     ;


! Schedule: JP Office - CMR equipments
Schedule:Compact,
JP Office - CMR equipments,
Fraction,
Through: 31 Dec,
For: Weekdays SummerDesignDay WinterDesignDay,
Until: 24:00,      1,
For: Weekends,
Until: 24:00,      1,
For: AllOtherDays,
Until: 24:00,      1     ;


! Schedule: JP Office - office occupants
Schedule:Compact,
JP Office - office occupants,
Fraction,
Through: 31 Dec,
For: Weekdays SummerDesignDay WinterDesignDay,
Until: 08:00,      0,
Until: 12:00,      1,
Until: 13:00,      0.6,
Until: 18:00,      1,
Until: 19:00,      0.5,
Until: 20:00,      0.3,
Until: 21:00,      0.2,
Until: 24:00,      0,
For: Weekends,
Until: 24:00,      0,
For: AllOtherDays,
Until: 24:00,      0     ;


! Schedule: JP Office - CMR lighting
Schedule:Compact,
JP Office - CMR lighting,
Fraction,
Through: 31 Dec,
For: Weekdays SummerDesignDay WinterDesignDay,
Until: 24:00,      1,
For: Weekends,
Until: 24:00,      1,
For: AllOtherDays,
Until: 24:00,      1     ;


WindowMaterial:Gas,1001,                          !- AIR 6MM
   Air,                                           !- Gas type (Air - Argon - Krypton - Xenon - SF6 - Custom)
    .006;                                         !- Thickness {m}

WindowMaterial:Gas,Half thickness 1001,           !- AIR 6MM
   Air,                                           !- Gas type (Air - Argon - Krypton - Xenon - SF6 - Custom)
    .003;                                         !- Thickness {m}



WindowMaterial:Glazing,2,                         !- Generic CLEAR 3MM
   SpectralAverage,                               !- Optical data type {SpectralAverage or Spectral}
   ,                                              !- Name of spectral data set when Optical Data Type = Spectral
   .003,                                          !- Thickness {m}
   .837,                                          !- Solar transmittance at normal incidence
   .075,                                          !- Solar reflectance at normal incidence: front side
   .075,                                          !- Solar reflectance at normal incidence: back side
   .898,                                          !- Visible transmittance at normal incidence
   .081,                                          !- Visible reflectance at normal incidence: front side
   .081,                                          !- Visible reflectance at normal incidence: back side
   .0,                                            !- IR transmittance at normal incidence
   .84,                                           !- IR emissivity: front side
   .84,                                           !- IR emissivity: back side
   .9,                                            !- Conductivity {W/m-K}
   1;                                             !- Dirt Correction Factor for Solar and Visible Transmittance

WindowMaterial:Glazing,10000,                     !- Ammended AGC Glass Co. N.A. Float Glass <CLR_8.AFG>
   Spectral,                                      !- Optical data type {SpectralAverage or Spectral}
   Ammended AGC Glass Co. N.A. Float Glass <CLR_8.AFG>,  !- Name of spectral data set when Optical Data Type = Spectral
   .007874,                                       !- Thickness {m}
   ,                                              !- Solar transmittance at normal incidence
   ,                                              !- Solar reflectance at normal incidence: front side
   ,                                              !- Solar reflectance at normal incidence: back side
   ,                                              !- Visible transmittance at normal incidence
   ,                                              !- Visible reflectance at normal incidence: front side
   ,                                              !- Visible reflectance at normal incidence: back side
   0,                                             !- IR transmittance at normal incidence
   .84,                                           !- IR emissivity: front side
   .84,                                           !- IR emissivity: back side
   1,                                             !- Conductivity {W/m-K}
   1;                                             !- Dirt Correction Factor for Solar and Visible Transmittance

MaterialProperty:GlazingSpectralData,             !- Spectral data for above pane
Ammended AGC Glass Co. N.A. Float Glass <CLR_8.AFG>,
0.305, 0, 0.049, 0.049, 
0.31, 0, 0.049, 0.049, 
0.315, 0.002, 0.048, 0.048, 
0.32, 0.013, 0.048, 0.048, 
0.325, 0.05, 0.047, 0.047, 
0.33, 0.136, 0.048, 0.048, 
0.335, 0.262, 0.051, 0.051, 
0.34, 0.407, 0.054, 0.054, 
0.345, 0.54, 0.059, 0.059, 
0.35, 0.662, 0.066, 0.066, 
0.36, 0.788, 0.073, 0.073, 
0.37, 0.827, 0.076, 0.076, 
0.38, 0.811, 0.075, 0.075, 
0.39, 0.856, 0.078, 0.078, 
0.4, 0.874, 0.079, 0.079, 
0.41, 0.873, 0.079, 0.079, 
0.42, 0.87, 0.078, 0.078, 
0.43, 0.87, 0.078, 0.078, 
0.44, 0.868, 0.077, 0.077, 
0.45, 0.874, 0.078, 0.078, 
0.46, 0.879, 0.078, 0.078, 
0.47, 0.882, 0.077, 0.077, 
0.48, 0.882, 0.078, 0.078, 
0.49, 0.882, 0.077, 0.077, 
0.5, 0.881, 0.076, 0.076, 
0.51, 0.881, 0.076, 0.076, 
0.52, 0.88, 0.076, 0.076, 
0.53, 0.879, 0.076, 0.076, 
0.54, 0.879, 0.076, 0.076, 
0.55, 0.877, 0.076, 0.076, 
0.57, 0.872, 0.076, 0.076, 
0.59, 0.857, 0.075, 0.075, 
0.61, 0.848, 0.074, 0.074, 
0.63, 0.835, 0.072, 0.072, 
0.65, 0.822, 0.071, 0.071, 
0.67, 0.812, 0.07, 0.07, 
0.69, 0.802, 0.069, 0.069, 
0.71, 0.789, 0.069, 0.069, 
0.718, 0.783, 0.068, 0.068, 
0.724, 0.778, 0.067, 0.067, 
0.74, 0.763, 0.066, 0.066, 
0.752, 0.753, 0.066, 0.066, 
0.758, 0.749, 0.065, 0.065, 
0.763, 0.745, 0.065, 0.065, 
0.768, 0.741, 0.065, 0.065, 
0.78, 0.731, 0.064, 0.064, 
0.8, 0.714, 0.063, 0.063, 
0.816, 0.703, 0.062, 0.062, 
0.824, 0.698, 0.062, 0.062, 
0.832, 0.693, 0.062, 0.062, 
0.84, 0.689, 0.061, 0.061, 
0.86, 0.683, 0.063, 0.063, 
0.88, 0.674, 0.062, 0.062, 
0.905, 0.664, 0.062, 0.062, 