!-Generator IDFEditor 1.44
!-Option SortedOrder

!-NOTE: All comments with '!-' are ignored by the IDFEditor and are generated automatically.
!-      Use '!' comments if they need to be retained when using the IDFEditor.

Version,
    8.1;                     !- Version Identifier


SimulationControl,
    No,                      !- Do Zone Sizing Calculation
    No,                      !- Do System Sizing Calculation
    No,                      !- Do Plant Sizing Calculation
    No,                      !- Run Simulation for Sizing Periods
    Yes;                     !- Run Simulation for Weather File Run Periods


SurfaceConvectionAlgorithm:Inside,
    Simple;                  !- Algorithm


SurfaceConvectionAlgorithm:Outside,
    SimpleCombined;          !- Algorithm


HeatBalanceAlgorithm,
    ConductionTransferFunction;  !- Algorithm


Timestep,
    4;                       !- Number of Timesteps per Hour


Site:Location,
    TOKYO,                   !- Name
    35.683,                  !- Latitude {deg}
    139.767,                 !- Longitude {deg}
    9.00,                    !- Time Zone {hr}
    5.00;                    !- Elevation {m}


SizingPeriod:DesignDay,
    Tokyo,                   !- Name
    8,                       !- Month
    11,                      !- Day of Month
    SummerDesignDay,         !- Day Type
    40,                      !- Maximum Dry-Bulb Temperature {C}
    0.0,                     !- Daily Dry-Bulb Temperature Range {deltaC}
    ,                        !- Dry-Bulb Temperature Range Modifier Type
    ,                        !- Dry-Bulb Temperature Range Modifier Day Schedule Name
    WetBulb,                 !- Humidity Condition Type
    29.1734,                 !- Wetbulb or DewPoint at Maximum Dry-Bulb {C}
    ,                        !- Humidity Condition Day Schedule Name
    ,                        !- Humidity Ratio at Maximum Dry-Bulb {kgWater/kgDryAir}
    ,                        !- Enthalpy at Maximum Dry-Bulb {J/kg}
    ,                        !- Daily Wet-Bulb Temperature Range {deltaC}
    101265.,                 !- Barometric Pressure {Pa}
    0,                       !- Wind Speed {m/s}
    140,                     !- Wind Direction {deg}
    No,                      !- Rain Indicator
    No,                      !- Snow Indicator
    No,                      !- Daylight Saving Time Indicator
    ASHRAEClearSky,          !- Solar Model Indicator
    ,                        !- Beam Solar Day Schedule Name
    ,                        !- Diffuse Solar Day Schedule Name
    ,                        !- ASHRAE Clear Sky Optical Depth for Beam Irradiance (taub) {dimensionless}
    ,                        !- ASHRAE Clear Sky Optical Depth for Diffuse Irradiance (taud) {dimensionless}
    0.00;                    !- Sky Clearness


RunPeriod,
    August,                  !- Name
    8,                       !- Begin Month
    1,                       !- Begin Day of Month
    8,                       !- End Month
    31,                      !- End Day of Month
    Thursday,                !- Day of Week for Start Day
    No,                      !- Use Weather File Holidays and Special Days
    No,                      !- Use Weather File Daylight Saving Period
    No,                      !- Apply Weekend Holiday Rule
    No,                      !- Use Weather File Rain Indicators
    No;                      !- Use Weather File Snow Indicators

Site:GroundTemperature:Deep,
    16,                      !- January Deep Ground Temperature {C}
    16,                      !- February Deep Ground Temperature {C}
    16,                      !- March Deep Ground Temperature {C}
    16,                      !- April Deep Ground Temperature {C}
    16,                      !- May Deep Ground Temperature {C}
    16,                      !- June Deep Ground Temperature {C}
    16,                      !- July Deep Ground Temperature {C}
    16,                      !- August Deep Ground Temperature {C}
    16,                      !- September Deep Ground Temperature {C}
    16,                      !- October Deep Ground Temperature {C}
    16,                      !- November Deep Ground Temperature {C}
    16;                      !- December Deep Ground Temperature {C}

!-----Material data added by sei
Material,
  SlabConcrete,                           !- Name Ordinary Concrete (nets)
  MediumRough,                            !- Roughness
  0.15,                                   !- Thickness {m}
  1.39535,                                !- Conductivity {W/m-K}
  2200,                                   !- Density {kg/m3}
  879.07,                                 !- Specific Heat {J/kg-K}
  0.9,                                    !- Thermal Absorptance
  0.7,                                    !- Solar Absorptance
  0.7;                                    !- Visible Absorptance

Material,
  TileCarpet,                             !- Name Carpet (nets)
  MediumRough,                            !- Roughness
  0.0065,                                 !- Thickness {m}
  0.080233,                               !- Conductivity {W/m-K}
  400,                                    !- Density {kg/m3}
  795.349,                                !- Specific Heat {J/kg-K}
  0.9,                                    !- Thermal Absorptance
  0.7,                                    !- Solar Absorptance
  0.7;                                    !- Visible Absorptance

Material,
  OAFloorPanel,                           !- Name Iron (nets)
  MediumRough,                            !- Roughness
  0.005,                                  !- Thickness {m}
  45,                                     !- Conductivity {W/m-K}
  7900,                                   !- Density {kg/m3}
  460.465,                                !- Specific Heat {J/kg-K}
  0.9,                                    !- Thermal Absorptance
  0.7,                                    !- Solar Absorptance
  0.7;                                    !- Visible Absorptance

Material,
  CeilingPanel,                           !- Name Alminium (nets)
  MediumRough,                            !- Roughness
  0.001,                                  !- Thickness {m}
  210,                                    !- Conductivity {W/m-K}
  2700,                                   !- Density {kg/m3}
  879.07,                                 !- Specific Heat {J/kg-K}
  0.9,                                    !- Thermal Absorptance
  0.7,                                    !- Solar Absorptance
  0.7;                                    !- Visible Absorptance

Material,
  PlenumAir,                        !- Name
  MediumRough,                            !- Roughness
  0.9,                                  !- Thickness {m}
  0.022093,                                    !- Conductivity {W/m-K}
  1.3,                                   !- Density {kg/m3}
  1004.65,                                 !- Specific Heat {J/kg-K}
  0.9,                                    !- Thermal Absorptance
  0.7,                                    !- Solar Absorptance
  0.7;                                    !- Visible Absorptance


!-----

Material,
  000 M01 100mm brick,                    !- Name
  MediumRough,                            !- Roughness
  0.1016,                                 !- Thickness {m}
  0.89,                                   !- Conductivity {W/m-K}
  1920,                                   !- Density {kg/m3}
  790,                                    !- Specific Heat {J/kg-K}
  0.9,                                    !- Thermal Absorptance
  0.7,                                    !- Solar Absorptance
  0.7;                                    !- Visible Absorptance

Material,
  000 M15 200mm heavyweight concrete,     !- Name
  MediumRough,                            !- Roughness
  0.2032,                                 !- Thickness {m}
  1.95,                                   !- Conductivity {W/m-K}
  2240,                                   !- Density {kg/m3}
  900,                                    !- Specific Heat {J/kg-K}
  0.9,                                    !- Thermal Absorptance
  0.7,                                    !- Solar Absorptance
  0.7;                                    !- Visible Absorptance

Material,
  000 I03 100mm insulation board 1,       !- Name
  MediumRough,                            !- Roughness
  0.1,                                    !- Thickness {m}
  0.03,                                   !- Conductivity {W/m-K}
  43,                                     !- Density {kg/m3}
  1210,                                   !- Specific Heat {J/kg-K}
  0.9,                                    !- Thermal Absorptance
  0.7,                                    !- Solar Absorptance
  0.7;                                    !- Visible Absorptance

Material:AirGap,
  000 F04 Wall air space resistance,      !- Name
  0.15;                                   !- Thermal Resistance {m2-K/W}

Material,
  000 G01a 19mm gypsum board,             !- Name
  MediumSmooth,                           !- Roughness
  0.019,                                  !- Thickness {m}
  0.16,                                   !- Conductivity {W/m-K}
  800,                                    !- Density {kg/m3}
  1090,                                   !- Specific Heat {J/kg-K}
  0.9,                                    !- Thermal Absorptance
  0.7,                                    !- Solar Absorptance
  0.7;                                    !- Visible Absorptance

Material,
  000 M11 100mm lightweight concrete,     !- Name
  MediumRough,                            !- Roughness
  0.1016,                                 !- Thickness {m}
  0.53,                                   !- Conductivity {W/m-K}
  1280,                                   !- Density {kg/m3}
  840,                                    !- Specific Heat {J/kg-K}
  0.9,                                    !- Thermal Absorptance
  0.7,                                    !- Solar Absorptance
  0.7;                                    !- Visible Absorptance

Material:AirGap,
  000 F05 Ceiling air space resistance,   !- Name
  0.18;                                   !- Thermal Resistance {m2-K/W}

Material,
  000 F16 Acoustic tile,                  !- Name
  MediumSmooth,                           !- Roughness
  0.0191,                                 !- Thickness {m}
  0.06,                                   !- Conductivity {W/m-K}
  368,                                    !- Density {kg/m3}
  590,                                    !- Specific Heat {J/kg-K}
  0.9,                                    !- Thermal Absorptance
  0.7,                                    !- Solar Absorptance
  0.7;                                    !- Visible Absorptance

Material,
  000 G05 25mm wood,                      !- Name
  MediumSmooth,                           !- Roughness
!  0.0254,                                 !- Thickness {m}
  0.0001,                                 !- Thickness {m}
  0.15,                                   !- Conductivity {W/m-K}
  608,                                    !- Density {kg/m3}
  1630,                                   !- Specific Heat {J/kg-K}
  0.9,                                    !- Thermal Absorptance
  0.7,                                    !- Solar Absorptance
  0.7;                                    !- Visible Absorptance

!-----Construction data added by sei
Construction,
  SlabConcrete,                           !- Name
  SlabConcrete;                           !- Layer 1

Construction,
  OAFloor1,                               !- Name (plenum side)
  TileCarpet,                             !- Layer 1
  OAFloorPanel;                           !- Layer 2

Construction,
  OAFloor2,                               !- Name (room side)
  OAFloorPanel,                           !- Layer 1
  TileCarpet;                             !- Layer 2

Construction,
  CeilingPanel,                           !- Name
  CeilingPanel;                           !- Layer 1

Construction:InternalSource,
  CeilingRadiantPanel1,                    !- Name (Room side)
  1,                       !- Source Present After Layer Number
  2,                       !- Temperature Calculation Requested After Layer Number
  1,                       !- Dimensions for the CTF Calculation
  0.001,                    !- Tube Spacing {m}
  PlenumAir,  !- Outside Layer
  CeilingPanel;  !- Layer2

Construction:InternalSource,
  CeilingRadiantPanel2,                    !- Name (plenum side)
  1,                       !- Source Present After Layer Number
  2,                       !- Temperature Calculation Requested After Layer Number
  1,                       !- Dimensions for the CTF Calculation
  0.001,                    !- Tube Spacing {m}
  CeilingPanel,  !- Outside Layer
  PlenumAir;  !- Layer2

!-----

Construction,
  000 Exterior Wall,                      !- Name
  000 M01 100mm brick,                    !- Layer 1
  000 M15 200mm heavyweight concrete,     !- Layer 2
  000 I03 100mm insulation board 1,       !- Layer 3
  000 F04 Wall air space resistance,      !- Layer 4
  000 G01a 19mm gypsum board;             !- Layer 5

Construction,
    000 Interior Ceiling,    !- Name
    000 M11 100mm lightweight concrete,  !- Layer1
    000 F05 Ceiling air space resistance,  !- Layer 2
    000 F16 Acoustic tile;   !- Layer 3

Construction:InternalSource,
    000 Interior Ceiling2,    !- Name
    1,                       !- Source Present After Layer Number
    3,                       !- Temperature Calculation Requested After Layer Number
    1,                       !- Dimensions for the CTF Calculation
    0.01,                    !- Tube Spacing {m}
    000 M11 100mm lightweight concrete,  !- Outside Layer
    000 F05 Ceiling air space resistance,  !- Layer 2
    000 F16 Acoustic tile;   !- Layer 3


Construction,
  000 Interior Floor,                     !- Name
  000 F16 Acoustic tile,                  !- Layer 1
  000 F05 Ceiling air space resistance,   !- Layer 2
  000 M11 100mm lightweight concrete;     !- Layer 3

Construction,
  000 Interior Partition,                 !- Name
  000 G05 25mm wood;                      !- Layer 1

ZoneList,
  Zeb-Lab,                                !- Name
  Supply-Plenum,                         !- Zone Name 1
  Per-Zone,                         !- Zone Name 2
  Int-Zone,                         !- Zone Name 3
  Return-Plenum;                         !- Zone Name 4

ZoneList,
    Room,                    !- Name
    Per-Zone,                !- Zone 1 Name
    Int-Zone;                !- Zone 2 Name

Building,
  Small Office,                           !- Name
  -0,                                     !- North Axis {deg}
  ,                                       !- Terrain
  0.04,                                   !- Loads Convergence Tolerance Value
  0.4,                                    !- Temperature Convergence Tolerance Value {deltaC}
  FullExterior,                           !- Solar Distribution
  25,                                     !- Maximum Number of Warmup Days
  ;                                       !- Minimum Number of Warmup Days

Zone,
  Supply-Plenum,                         !- Name
  -0,                                     !- Direction of Relative North {deg}
  0,                                      !- X Origin {m}
  0,                                      !- Y Origin {m}
  0,                                      !- Z Origin {m}
  ,                                       !- Type
  ,                                       !- Multiplier
  ,                                       !- Ceiling Height {m}
  ,                                       !- Volume {m3}
  ,                                       !- Floor Area {m2}
  ,                                       !- Zone Inside Convection Algorithm
  ;                                       !- Zone Outside Convection Algorithm

BuildingSurface:Detailed,
  Surface 1,                              !- Name
  Wall,                                   !- Surface Type
  000 Exterior Wall,                      !- Construction Name
  Supply-Plenum,                         !- Zone Name
  Adiabatic,                               !- Outside Boundary Condition
  ,                                       !- Outside Boundary Condition Object
  NoSun,                                  !- Sun Exposure
  NoWind,                                 !- Wind Exposure
  ,                                       !- View Factor to Ground
  ,                                       !- Number of Vertices
  12.8, 7.8, 0,                           !- X,Y,Z Vertex 1 {m}
  12.8, 0, 0,                             !- X,Y,Z Vertex 2 {m}
  0, 0, 0,                                !- X,Y,Z Vertex 3 {m}
  0, 7.8, 0;                              !- X,Y,Z Vertex 4 {m}

BuildingSurface:Detailed,
  Surface 2,                              !- Name
  Ceiling,                                !- Surface Type
!  000 Interior Ceiling,                   !- Construction Name
  OAFloor1,                   !- Construction Name
  Supply-Plenum,                         !- Zone Name
  Surface,                                !- Outside Boundary Condition
  Surface 7,                              !- Outside Boundary Condition Object
  NoSun,                                  !- Sun Exposure
  NoWind,                                 !- Wind Exposure
  ,                                       !- View Factor to Ground
  ,                                       !- Number of Vertices
  12.8, 0, 0.15,                          !- X,Y,Z Vertex 1 {m}
  12.8, 2, 0.15,                          !- X,Y,Z Vertex 2 {m}
  0, 2, 0.15,                             !- X,Y,Z Vertex 3 {m}
  0, 0, 0.15;                             !- X,Y,Z Vertex 4 {m}

BuildingSurface:Detailed,
  Surface 26,                             !- Name
  Ceiling,                                !- Surface Type
!  000 Interior Ceiling,                   !- Construction Name
  OAFloor1,                   !- Construction Name
  Supply-Plenum,                         !- Zone Name
  Surface,                                !- Outside Boundary Condition
  Surface 13,                             !- Outside Boundary Condition Object
  NoSun,                                  !- Sun Exposure
  NoWind,                                 !- Wind Exposure
  ,                                       !- View Factor to Ground
  ,                                       !- Number of Vertices
  12.8, 2, 0.15,                          !- X,Y,Z Vertex 1 {m}
  12.8, 7.8, 0.15,                        !- X,Y,Z Vertex 2 {m}
  0, 7.8, 0.15,                           !- X,Y,Z Vertex 3 {m}
  0, 2, 0.15;                             !- X,Y,Z Vertex 4 {m}

BuildingSurface:Detailed,
  Surface 3,                              !- Name
  Wall,                                   !- Surface Type
  000 Exterior Wall,                      !- Construction Name
  Supply-Plenum,                         !- Zone Name
  Adiabatic,                               !- Outside Boundary Condition
  ,                                       !- Outside Boundary Condition Object
  NoSun,                             !- Sun Exposure
  NoWind,                            !- Wind Exposure
  ,                                       !- View Factor to Ground
  ,                                       !- Number of Vertices
  12.8, 7.8, 0.15,                        !- X,Y,Z Vertex 1 {m}
  12.8, 7.8, 0,                           !- X,Y,Z Vertex 2 {m}
  0, 7.8, 0,                              !- X,Y,Z Vertex 3 {m}
  0, 7.8, 0.15;                           !- X,Y,Z Vertex 4 {m}

BuildingSurface:Detailed,
  Surface 4,                              !- Name
  Wall,                                   !- Surface Type
  000 Exterior Wall,                      !- Construction Name
  Supply-Plenum,                         !- Zone Name
  Adiabatic,                               !- Outside Boundary Condition
  ,                                       !- Outside Boundary Condition Object
  NoSun,                             !- Sun Exposure
  NoWind,                            !- Wind Exposure
  ,                                       !- View Factor to Ground
  ,                                       !- Number of Vertices
  12.8, 0, 0.15,                          !- X,Y,Z Vertex 1 {m}
  12.8, 0, 0,                             !- X,Y,Z Vertex 2 {m}
  12.8, 7.8, 0,                           !- X,Y,Z Vertex 3 {m}
  12.8, 7.8, 0.15;                        !- X,Y,Z Vertex 4 {m}

BuildingSurface:Detailed,
  Surface 5,                              !- Name
  Wall,                                   !- Surface Type
  000 Exterior Wall,                      !- Construction Name
  Supply-Plenum,                         !- Zone Name
  Adiabatic,                               !- Outside Boundary Condition
  ,                                       !- Outside Boundary Condition Object
  NoSun,                             !- Sun Exposure
  NoWind,                            !- Wind Exposure
  ,                                       !- View Factor to Ground
  ,                                       !- Number of Vertices
  0, 0, 0.15,                             !- X,Y,Z Vertex 1 {m}
  0, 0, 0,                                !- X,Y,Z Vertex 2 {m}
  12.8, 0, 0,                             !- X,Y,Z Vertex 3 {m}
  12.8, 0, 0.15;                          !- X,Y,Z Vertex 4 {m}

BuildingSurface:Detailed,
  Surface 6,                              !- Name
  Wall,                                   !- Surface Type
  000 Exterior Wall,                      !- Construction Name
  Supply-Plenum,                         !- Zone Name
  Adiabatic,                               !- Outside Boundary Condition
  ,                                       !- Outside Boundary Condition Object
  NoSun,                             !- Sun Exposure
  NoWind,                            !- Wind Exposure
  ,                                       !- View Factor to Ground
  ,                                       !- Number of Vertices
  0, 7.8, 0.15,                           !- X,Y,Z Vertex 1 {m}
  0, 7.8, 0,                              !- X,Y,Z Vertex 2 {m}
  0, 0, 0,                                !- X,Y,Z Vertex 3 {m}
  0, 0, 0.15;                             !- X,Y,Z Vertex 4 {m}

Zone,
  Per-Zone,                         !- Name
  -0,                                     !- Direction of Relative North {deg}
  0,                                      !- X Origin {m}
  0,                                      !- Y Origin {m}
  0.15,                                   !- Z Origin {m}
  ,                                       !- Type
  ,                                       !- Multiplier
  ,                                       !- Ceiling Height {m}
  ,                                       !- Volume {m3}
  ,                                       !- Floor Area {m2}
  ,                                       !- Zone Inside Convection Algorithm
  ;                                       !- Zone Outside Convection Algorithm

BuildingSurface:Detailed,
  Surface 10,                             !- Name
  Wall,                                   !- Surface Type
  000 Exterior Wall,                      !- Construction Name
  Per-Zone,                         !- Zone Name
  Adiabatic,                               !- Outside Boundary Condition
  ,                                       !- Outside Boundary Condition Object
  NoSun,                             !- Sun Exposure
  NoWind,                            !- Wind Exposure
  ,                                       !- View Factor to Ground
  ,                                       !- Number of Vertices
  0, 2, 3,                                !- X,Y,Z Vertex 1 {m}
  0, 2, 0,                                !- X,Y,Z Vertex 2 {m}
  0, 0, 0,                                !- X,Y,Z Vertex 3 {m}
  0, 0, 3;                                !- X,Y,Z Vertex 4 {m}

BuildingSurface:Detailed,
  Surface 11,                             !- Name
  Wall,                                   !- Surface Type
  000 Interior Partition,                 !- Construction Name
  Per-Zone,                         !- Zone Name
  Surface,                                !- Outside Boundary Condition
!  Zone,                                   !- Outside Boundary Condition
  Surface 17,                             !- Outside Boundary Condition Object
  NoSun,                                  !- Sun Exposure
  NoWind,                                 !- Wind Exposure
  ,                                       !- View Factor to Ground
  ,                                       !- Number of Vertices
  12.8, 2, 3,                             !- X,Y,Z Vertex 1 {m}
  12.8, 2, 0,                             !- X,Y,Z Vertex 2 {m}
  0, 2, 0,                                !- X,Y,Z Vertex 3 {m}
  0, 2, 3;                                !- X,Y,Z Vertex 4 {m}

BuildingSurface:Detailed,
  Surface 12,                             !- Name
  Wall,                                   !- Surface Type
  000 Exterior Wall,                      !- Construction Name
  Per-Zone,                         !- Zone Name
  Adiabatic,                               !- Outside Boundary Condition
  ,                                       !- Outside Boundary Condition Object
  NoSun,                             !- Sun Exposure
  NoWind,                            !- Wind Exposure
  ,                                       !- View Factor to Ground
  ,                                       !- Number of Vertices
  12.8, 0, 3,                             !- X,Y,Z Vertex 1 {m}
  12.8, 0, 0,                             !- X,Y,Z Vertex 2 {m}
  12.8, 2, 0,                             !- X,Y,Z Vertex 3 {m}
  12.8, 2, 3;                             !- X,Y,Z Vertex 4 {m}

BuildingSurface:Detailed,
  Surface 7,                              !- Name
  Floor,                                  !- Surface Type
!  000 Interior Floor,                     !- Construction Name
  OAFloor2,                     !- Construction Name
  Per-Zone,                         !- Zone Name
  Surface,                                !- Outside Boundary Condition
  Surface 2,                              !- Outside Boundary Condition Object
  NoSun,                                  !- Sun Exposure
  NoWind,                                 !- Wind Exposure
  ,                                       !- View Factor to Ground
  ,                                       !- Number of Vertices
  12.8, 2, 0,                             !- X,Y,Z Vertex 1 {m}
  12.8, 0, 0,                             !- X,Y,Z Vertex 2 {m}
  0, 0, 0,                                !- X,Y,Z Vertex 3 {m}
  0, 2, 0;                                !- X,Y,Z Vertex 4 {m}

BuildingSurface:Detailed,
  Surface 8,                              !- Name
  Wall,                                   !- Surface Type
  000 Exterior Wall,                      !- Construction Name
  Per-Zone,                         !- Zone Name
  Adiabatic,                               !- Outside Boundary Condition
  ,                                       !- Outside Boundary Condition Object
  NoSun,                             !- Sun Exposure
  NoWind,                            !- Wind Exposure
  ,                                       !- View Factor to Ground
  ,                                       !- Number of Vertices
  0, 0, 3,                                !- X,Y,Z Vertex 1 {m}
  0, 0, 0,                                !- X,Y,Z Vertex 2 {m}
  12.8, 0, 0,                             !- X,Y,Z Vertex 3 {m}
  12.8, 0, 3;                             !- X,Y,Z Vertex 4 {m}

BuildingSurface:Detailed,
  Surface 9,                              !- Name
  Ceiling,                                !- Surface Type
!  000 Interior Ceiling,                   !- Construction Name
  CeilingPanel,                   !- Construction Name
  Per-Zone,                         !- Zone Name
  Surface,                                !- Outside Boundary Condition
  Surface 19,                             !- Outside Boundary Condition Object
  NoSun,                                  !- Sun Exposure
  NoWind,                                 !- Wind Exposure
  ,                                       !- View Factor to Ground
  ,                                       !- Number of Vertices
  12.8, 0, 3,                             !- X,Y,Z Vertex 1 {m}
  12.8, 2, 3,                             !- X,Y,Z Vertex 2 {m}
  0, 2, 3,                                !- X,Y,Z Vertex 3 {m}
  0, 0, 3;                                !- X,Y,Z Vertex 4 {m}

Zone,
  Int-Zone,                         !- Name
  -0,                                     !- Direction of Relative North {deg}
  0,                                      !- X Origin {m}
  2,                                      !- Y Origin {m}
  0.15,                                   !- Z Origin {m}
  ,                                       !- Type
  ,                                       !- Multiplier
  ,                                       !- Ceiling Height {m}
  ,                                       !- Volume {m3}
  ,                                       !- Floor Area {m2}