!-Generator IDFEditor 1.51
!-Option SortedOrder

!-NOTE: All comments with '!-' are ignored by the IDFEditor and are generated automatically.
!-      Use '!' comments if they need to be retained when using the IDFEditor.


Version,
    9.4;                     !- Version Identifier

!-   ===========  ALL OBJECTS IN CLASS: BUILDING ===========

Building,
    Case MZN,                !- Name
    0.0,                     !- North Axis {deg}
    Country,                 !- Terrain　★
    3.9999999E-02,           !- Loads Convergence Tolerance Value {W}
    4.0000002E-03,           !- Temperature Convergence Tolerance Value {deltaC} ★
    FullInteriorAndExterior, !- Solar Distribution ★
    25,                      !- Maximum Number of Warmup Days　★
    6;                       !- Minimum Number of Warmup Days


!-   ===========  ALL OBJECTS IN CLASS: SHADOWCALCULATION ===========

ShadowCalculation,
    PolygonClipping,         !- Shading Calculation Method
    Periodic,                !- Shading Calculation Update Frequency Method
    1;                       !- Shading Calculation Update Frequency

!-   ===========  ALL OBJECTS IN CLASS: SURFACECONVECTIONALGORITHM:INSIDE ===========

SurfaceConvectionAlgorithm:Inside,
    TARP;                    !- Algorithm


!-   ===========  ALL OBJECTS IN CLASS: SURFACECONVECTIONALGORITHM:OUTSIDE ===========

SurfaceConvectionAlgorithm:Outside,
    DOE-2;                   !- Algorithm


!-   ===========  ALL OBJECTS IN CLASS: TIMESTEP ===========

Timestep,
    4;                       !- Number of Timesteps per Hour


! Hourly weather file: C:\ProgramData\DesignBuilder\Weather Data\USA_CO_DENVER INTL AP_TMY3.epw
Site:Location,
    Denver-Stapleton CO USA TMY23062,  !- Name
    39.8,                    !- Latitude {deg}
    -104.9,                  !- Longitude {deg}
    -7.0,                    !- Time Zone {hr}
    1609.00;                 !- Elevation {m}


!-   ===========  ALL OBJECTS IN CLASS: RUNPERIOD ===========

RunPeriod,
    RUNPERIOD 1,             !- Name
    1,                       !- Begin Month
    1,                       !- Begin Day of Month
    ,                        !- Begin Year
    12,                      !- End Month
    31,                      !- End Day of Month
    ,                        !- End Year
    ,                        !- Day of Week for Start Day
    Yes,                     !- Use Weather File Holidays and Special Days　★
    Yes,                     !- Use Weather File Daylight Saving Period　★
    No,                      !- Apply Weekend Holiday Rule　★
    Yes,                     !- Use Weather File Rain Indicators　★
    Yes,                     !- Use Weather File Snow Indicators　★
    No;                      !- Treat Weather as Actual　★


!-   ===========  ALL OBJECTS IN CLASS: SITE:GROUNDTEMPERATURE:BUILDINGSURFACE ===========

Site:GroundTemperature:BuildingSurface,
    20,                      !- January Ground Temperature {C}
    20,                      !- February Ground Temperature {C}
    20,                      !- March Ground Temperature {C}
    20,                      !- April Ground Temperature {C}
    20,                      !- May Ground Temperature {C}
    20,                      !- June Ground Temperature {C}
    20,                      !- July Ground Temperature {C}
    20,                      !- August Ground Temperature {C}
    20,                      !- September Ground Temperature {C}
    20,                      !- October Ground Temperature {C}
    20,                      !- November Ground Temperature {C}
    20;                      !- December Ground Temperature {C}


!-   ===========  ALL OBJECTS IN CLASS: SITE:GROUNDREFLECTANCE ===========

Site:GroundReflectance,
    0.01,                     !- January Ground Reflectance {dimensionless}
    0.01,                     !- February Ground Reflectance {dimensionless}
    0.01,                     !- March Ground Reflectance {dimensionless}
    0.01,                     !- April Ground Reflectance {dimensionless}
    0.01,                     !- May Ground Reflectance {dimensionless}
    0.01,                     !- June Ground Reflectance {dimensionless}
    0.01,                     !- July Ground Reflectance {dimensionless}
    0.01,                     !- August Ground Reflectance {dimensionless}
    0.01,                     !- September Ground Reflectance {dimensionless}
    0.01,                     !- October Ground Reflectance {dimensionless}
    0.01,                     !- November Ground Reflectance {dimensionless}
    0.01;                     !- December Ground Reflectance {dimensionless}


!-   ===========  ALL OBJECTS IN CLASS: SCHEDULETYPELIMITS ===========

ScheduleTypeLimits,
    Fraction,                !- Name
    0.0,                     !- Lower Limit Value
    1.0,                     !- Upper Limit Value
    CONTINUOUS;              !- Numeric Type

ScheduleTypeLimits,
    Temperature,             !- Name
    -60,                     !- Lower Limit Value
    200,                     !- Upper Limit Value
    CONTINUOUS;              !- Numeric Type

ScheduleTypeLimits,
    Control Type,            !- Name
    0,                       !- Lower Limit Value
    4,                       !- Upper Limit Value
    DISCRETE;                !- Numeric Type


!-   ===========  ALL OBJECTS IN CLASS: SCHEDULE:DAY:HOURLY ===========

Schedule:Day:Hourly,
    Day Sch On,              !- Name
    Fraction,                !- Schedule Type Limits Name
    1,                       !- Hour 1
    1,                       !- Hour 2
    1,                       !- Hour 3
    1,                       !- Hour 4
    1,                       !- Hour 5
    1,                       !- Hour 6
    1,                       !- Hour 7
    1,                       !- Hour 8
    1,                       !- Hour 9
    1,                       !- Hour 10
    1,                       !- Hour 11
    1,                       !- Hour 12
    1,                       !- Hour 13
    1,                       !- Hour 14
    1,                       !- Hour 15
    1,                       !- Hour 16
    1,                       !- Hour 17
    1,                       !- Hour 18
    1,                       !- Hour 19
    1,                       !- Hour 20
    1,                       !- Hour 21
    1,                       !- Hour 22
    1,                       !- Hour 23
    1;                       !- Hour 24

Schedule:Day:Hourly,
    Day Sch Off,             !- Name
    Fraction,                !- Schedule Type Limits Name
    0,                       !- Hour 1
    0,                       !- Hour 2
    0,                       !- Hour 3
    0,                       !- Hour 4
    0,                       !- Hour 5
    0,                       !- Hour 6
    0,                       !- Hour 7
    0,                       !- Hour 8
    0,                       !- Hour 9
    0,                       !- Hour 10
    0,                       !- Hour 11
    0,                       !- Hour 12
    0,                       !- Hour 13
    0,                       !- Hour 14
    0,                       !- Hour 15
    0,                       !- Hour 16
    0,                       !- Hour 17
    0,                       !- Hour 18
    0,                       !- Hour 19
    0,                       !- Hour 20
    0,                       !- Hour 21
    0,                       !- Hour 22
    0,                       !- Hour 23
    0;                       !- Hour 24

Schedule:Day:Hourly,
    Zone Cooling Setpoint All Days,  !- Name
    Temperature,             !- Schedule Type Limits Name
    15.,                     !- Hour 1
    15.,                     !- Hour 2
    15.,                     !- Hour 3
    15.,                     !- Hour 4
    15.,                     !- Hour 5
    15.,                     !- Hour 6
    15.,                     !- Hour 7
    15.,                     !- Hour 8
    15.,                     !- Hour 9
    15.,                     !- Hour 10
    15.,                     !- Hour 11
    15.,                     !- Hour 12
    15.,                     !- Hour 13
    15.,                     !- Hour 14
    15.,                     !- Hour 15
    15.,                     !- Hour 16
    15.,                     !- Hour 17
    15.,                     !- Hour 18
    15.,                     !- Hour 19
    15.,                     !- Hour 20
    15.,                     !- Hour 21
    15.,                     !- Hour 22
    15.,                     !- Hour 23
    15.;                     !- Hour 24

Schedule:Day:Hourly,
    Control Type All Days,   !- Name
    Control Type,            !- Schedule Type Limits Name
    2,                       !- Hour 1
    2,                       !- Hour 2
    2,                       !- Hour 3
    2,                       !- Hour 4
    2,                       !- Hour 5
    2,                       !- Hour 6
    2,                       !- Hour 7
    2,                       !- Hour 8
    2,                       !- Hour 9
    2,                       !- Hour 10
    2,                       !- Hour 11
    2,                       !- Hour 12
    2,                       !- Hour 13
    2,                       !- Hour 14
    2,                       !- Hour 15
    2,                       !- Hour 16
    2,                       !- Hour 17
    2,                       !- Hour 18
    2,                       !- Hour 19
    2,                       !- Hour 20
    2,                       !- Hour 21
    2,                       !- Hour 22
    2,                       !- Hour 23
    2;                       !- Hour 24

!-   ===========  ALL OBJECTS IN CLASS: SCHEDULE:WEEK:DAILY ===========

Schedule:Week:Daily,
    Week Sch On,                     !- Name
    Day Sch On,                      !- Sunday Schedule:Day Name
    Day Sch On,                      !- Monday Schedule:Day Name
    Day Sch On,                      !- Tuesday Schedule:Day Name
    Day Sch On,                      !- Wednesday Schedule:Day Name
    Day Sch On,                      !- Thursday Schedule:Day Name
    Day Sch On,                      !- Friday Schedule:Day Name
    Day Sch On,                      !- Saturday Schedule:Day Name
    Day Sch On,                      !- Holiday Schedule:Day Name
    Day Sch On,                      !- SummerDesignDay Schedule:Day Name
    Day Sch On,                      !- WinterDesignDay Schedule:Day Name
    Day Sch On,                      !- CustomDay1 Schedule:Day Name
    Day Sch On;                      !- CustomDay2 Schedule:Day Name

Schedule:Week:Daily,
    Week Sch Off,                    !- Name
    Day Sch Off,                     !- Sunday Schedule:Day Name
    Day Sch Off,                     !- Monday Schedule:Day Name
    Day Sch Off,                     !- Tuesday Schedule:Day Name
    Day Sch Off,                     !- Wednesday Schedule:Day Name
    Day Sch Off,                     !- Thursday Schedule:Day Name
    Day Sch Off,                     !- Friday Schedule:Day Name
    Day Sch Off,                     !- Saturday Schedule:Day Name
    Day Sch Off,                     !- Holiday Schedule:Day Name
    Day Sch Off,                     !- SummerDesignDay Schedule:Day Name
    Day Sch Off,                     !- WinterDesignDay Schedule:Day Name
    Day Sch Off,                     !- CustomDay1 Schedule:Day Name
    Day Sch Off;                     !- CustomDay2 Schedule:Day Name

Schedule:Week:Daily,
    Zone Cooling Setpoint All Week,  !- Name
    Zone Cooling Setpoint All Days,  !- Sunday Schedule:Day Name
    Zone Cooling Setpoint All Days,  !- Monday Schedule:Day Name
    Zone Cooling Setpoint All Days,  !- Tuesday Schedule:Day Name
    Zone Cooling Setpoint All Days,  !- Wednesday Schedule:Day Name
    Zone Cooling Setpoint All Days,  !- Thursday Schedule:Day Name
    Zone Cooling Setpoint All Days,  !- Friday Schedule:Day Name
    Zone Cooling Setpoint All Days,  !- Saturday Schedule:Day Name
    Zone Cooling Setpoint All Days,  !- Holiday Schedule:Day Name
    Zone Cooling Setpoint All Days,  !- SummerDesignDay Schedule:Day Name
    Zone Cooling Setpoint All Days,  !- WinterDesignDay Schedule:Day Name
    Zone Cooling Setpoint All Days,  !- CustomDay1 Schedule:Day Name
    Zone Cooling Setpoint All Days;  !- CustomDay2 Schedule:Day Name

Schedule:Week:Daily,
    Control Type All Week,  !- Name
    Control Type All Days,  !- Sunday Schedule:Day Name
    Control Type All Days,  !- Monday Schedule:Day Name
    Control Type All Days,  !- Tuesday Schedule:Day Name
    Control Type All Days,  !- Wednesday Schedule:Day Name
    Control Type All Days,  !- Thursday Schedule:Day Name
    Control Type All Days,  !- Friday Schedule:Day Name
    Control Type All Days,  !- Saturday Schedule:Day Name
    Control Type All Days,  !- Holiday Schedule:Day Name
    Control Type All Days,  !- SummerDesignDay Schedule:Day Name
    Control Type All Days,  !- WinterDesignDay Schedule:Day Name
    Control Type All Days,  !- CustomDay1 Schedule:Day Name
    Control Type All Days;  !- CustomDay2 Schedule:Day Name


!-   ===========  ALL OBJECTS IN CLASS: SCHEDULE:YEAR ===========

Schedule:Year,
    Always On,               !- Name
    Fraction,                !- Schedule Type Limits Name
    Week Sch On,             !- Schedule:Week Name 1
    1,                       !- Start Month 1
    1,                       !- Start Day 1
    12,                      !- End Month 1
    31;                      !- End Day 1

Schedule:Year,
    Always Off,              !- Name
    Fraction,                !- Schedule Type Limits Name
    Week Sch Off,            !- Schedule:Week Name 1
    1,                       !- Start Month 1
    1,                       !- Start Day 1
    12,                      !- End Month 1
    31;                      !- End Day 1

Schedule:Year,
    Cooling Setpoints,       !- Name
    Temperature,             !- Schedule Type Limits Name
    Zone Cooling Setpoint All Week,  !- Schedule:Week Name 1
    1,                       !- Start Month 1
    1,                       !- Start Day 1
    12,                      !- End Month 1
    31;                      !- End Day 1

Schedule:Year,
    Cooling Control Type,    !- Name
    Control Type,            !- Schedule Type Limits Name
    Control Type All Week,   !- Schedule:Week Name 1
    1,                       !- Start Month 1
    1,                       !- Start Day 1
    12,                      !- End Month 1
    31;                      !- End Day 1


!-   ===========  ALL OBJECTS IN CLASS: MATERIAL ===========

Material,
    Outside-wall,            !- Name
    Rough,                   !- Roughness
    0.15,                    !- Thickness {m}
    0.24000,                 !- Conductivity {W/m-K}
    1400.00,                 !- Density {kg/m3}
    1000.00,                 !- Specific Heat {J/kg-K}
    0.00001,                !- Thermal Absorptance
    0.00001,                !- Solar Absorptance
    0.00001;                !- Visible Absorptance

Material,
    Partition,               !- Name
    Rough,                   !- Roughness
    0.15,                    !- Thickness {m}
    1.20000,                 !- Conductivity {W/m-K}
    1400.00,                 !- Density {kg/m3}
    1000.00,                 !- Specific Heat {J/kg-K}
    0.00001,                !- Thermal Absorptance
    0.00001,                !- Solar Absorptance
    0.00001;                !- Visible Absorptance

!-   ===========  ALL OBJECTS IN CLASS: CONSTRUCTION ===========

! Project wall
Construction,
    Project wall,            !- Name
    Outside-wall;             !- Outside Layer

! Project partition
Construction,
    Project partition,       !- Name
    Partition;               !- Outside Layer


!-   ===========  ALL OBJECTS IN CLASS: GLOBALGEOMETRYRULES ===========

GlobalGeometryRules,
    LowerLeftCorner,         !- Starting Vertex Position
    CounterClockWise,        !- Vertex Entry Direction
    Relative;                !- Coordinate System


!-   ===========  ALL OBJECTS IN CLASS: ZONE ===========

! Block 1 - Zone A
Zone,
    Block1:ZoneA,            !- Name
    0,                       !- Direction of Relative North {deg}
    0,                       !- X Origin {m}
    0,                       !- Y Origin {m}
    0,                       !- Z Origin {m}
    1,                       !- Type
    1,                       !- Multiplier
    2.7,                     !- Ceiling Height {m}
    129.6,                   !- Volume {m3}
    48,                      !- Floor Area {m2}
    TARP,                    !- Zone Inside Convection Algorithm
    ,                        !- Zone Outside Convection Algorithm
    Yes;                     !- Part of Total Floor Area

! Block 1 - Zone B
Zone,
    Block1:ZoneB,            !- Name
    0,                       !- Direction of Relative North {deg}
    0,                       !- X Origin {m}
    0,                       !- Y Origin {m}
    0,                       !- Z Origin {m}
    1,                       !- Type
    1,                       !- Multiplier
    2.7,                     !- Ceiling Height {m}
    129.6,                   !- Volume {m3}
    48,                      !- Floor Area {m2}
    TARP,                    !- Zone Inside Convection Algorithm
    ,                        !- Zone Outside Convection Algorithm
    Yes;                     !- Part of Total Floor Area

! Block 1 - Zone C
Zone,
    Block1:ZoneC,            !- Name
    0,                       !- Direction of Relative North {deg}
    0,                       !- X Origin {m}
    0,                       !- Y Origin {m}
    0,                       !- Z Origin {m}
    1,                       !- Type
    1,                       !- Multiplier
    2.7,                     !- Ceiling Height {m}
    129.6,                   !- Volume {m3}
    48,                      !- Floor Area {m2}
    TARP,                    !- Zone Inside Convection Algorithm
    ,                        !- Zone Outside Convection Algorithm
    Yes;                     !- Part of Total Floor Area


!-   ===========  ALL OBJECTS IN CLASS: BUILDINGSURFACE:DETAILED ===========

! Block 1, Zone A, Ground floor - 48.000 m2 (Ground), Surface Area: 48.000m2
BuildingSurface:Detailed,
    Block1:ZoneA_GroundFloor_0_0_0,  !- Name
    Floor,                   !- Surface Type
    Project wall,            !- Construction Name
    Block1:ZoneA,            !- Zone Name
    Outdoors,                !- Outside Boundary Condition
    ,                        !- Outside Boundary Condition Object
    NoSun,                   !- Sun Exposure 
    NoWind,                  !- Wind Exposure
    AutoCalculate,           !- View Factor to Ground
    4,                       !- Number of Vertices
    6,            !- Vertex 1 X-coordinate {m}
    0,            !- Vertex 1 Y-coordinate {m}
    0,                       !- Vertex 1 Z-coordinate {m}
    0,            !- Vertex 2 X-coordinate {m}
    0,            !- Vertex 2 Y-coordinate {m}
    0,                       !- Vertex 2 Z-coordinate {m}
    0,            !- Vertex 3 X-coordinate {m}
    8,            !- Vertex 3 Y-coordinate {m}
    0,                       !- Vertex 3 Z-coordinate {m}
    6,            !- Vertex 4 X-coordinate {m}
    8,            !- Vertex 4 Y-coordinate {m}
    0;                       !- Vertex 4 Z-coordinate {m}

SurfaceProperty:ConvectionCoefficients,
    Block1:ZoneA_GroundFloor_0_0_0,  !- Surface Name
    Outside,                 !- Convection Coefficient 1 Location
    Value,                   !- Convection Coefficient 1 Type
    30.49,                      !- Convection Coefficient 1 {W/m2-K}
    ,                        !- Convection Coefficient 1 Schedule Name
    ,                        !- Convection Coefficient 1 User Curve Name
    Inside,                  !- Convection Coefficient 2 Location
    Value,                   !- Convection Coefficient 2 Type
    8.29;                    !- Convection Coefficient 2 {W/m2-K}


! Block 1, Zone A, Roof - 48.000 m2, Surface Area: 48.000m2
BuildingSurface:Detailed,
    Block1:ZoneA_Roof_1_0_0, !- Name
    Roof,                    !- Surface Type
    Project wall,            !- Construction Name
    Block1:ZoneA,            !- Zone Name
    Outdoors,                !- Outside Boundary Condition
    ,                        !- Outside Boundary Condition Object
    NoSun,                   !- Sun Exposure
    NoWind,                  !- Wind Exposure
    AutoCalculate,           !- View Factor to Ground
    4,                       !- Number of Vertices
    0,            !- Vertex 1 X-coordinate {m}
    0,            !- Vertex 1 Y-coordinate {m}
    2.7,                     !- Vertex 1 Z-coordinate {m}
    6,            !- Vertex 2 X-coordinate {m}
    0,            !- Vertex 2 Y-coordinate {m}
    2.7,                     !- Vertex 2 Z-coordinate {m}
    6,            !- Vertex 3 X-coordinate {m}
    8,            !- Vertex 3 Y-coordinate {m}
    2.7,                     !- Vertex 3 Z-coordinate {m}
    0,            !- Vertex 4 X-coordinate {m}
    8,            !- Vertex 4 Y-coordinate {m}
    2.7;                     !- Vertex 4 Z-coordinate {m}

SurfaceProperty:ConvectionCoefficients,
    Block1:ZoneA_Roof_1_0_0,  !- Surface Name
    Outside,                 !- Convection Coefficient 1 Location
    Value,                   !- Convection Coefficient 1 Type
    30.49,                      !- Convection Coefficient 1 {W/m2-K}
    ,                        !- Convection Coefficient 1 Schedule Name
    ,                        !- Convection Coefficient 1 User Curve Name
    Inside,                  !- Convection Coefficient 2 Location
    Value,                   !- Convection Coefficient 2 Type
    8.29;                    !- Convection Coefficient 2 {W/m2-K}


! Block 1, Zone A, Wall - 16.200 m2 - 0.0°, Surface Area: 16.200m2
BuildingSurface:Detailed,
    Block1:ZoneA_Wall_3_0_0, !- Name
    Wall,                    !- Surface Type
    Project wall,            !- Construction Name
    Block1:ZoneA,            !- Zone Name
    Outdoors,                !- Outside Boundary Condition
    ,                        !- Outside Boundary Condition Object
    NoSun,                   !- Sun Exposure
    NoWind,                  !- Wind Exposure
    AutoCalculate,           !- View Factor to Ground
    4,                       !- Number of Vertices
    6,                       !- Vertex 1 X-coordinate {m}
    8,                       !- Vertex 1 Y-coordinate {m}
    0,                       !- Vertex 1 Z-coordinate {m}
    0,                       !- Vertex 2 X-coordinate {m}
    8,                       !- Vertex 2 Y-coordinate {m}
    0,                       !- Vertex 2 Z-coordinate {m}
    0,                       !- Vertex 3 X-coordinate {m}
    8,                       !- Vertex 3 Y-coordinate {m}
    2.7,                     !- Vertex 3 Z-coordinate {m}
    6,                       !- Vertex 4 X-coordinate {m}
    8,                       !- Vertex 4 Y-coordinate {m}
    2.7;                     !- Vertex 4 Z-coordinate {m}

SurfaceProperty:ConvectionCoefficients,
    Block1:ZoneA_Wall_3_0_0,  !- Surface Name
    Outside,                 !- Convection Coefficient 1 Location
    Value,                   !- Convection Coefficient 1 Type
    30.49,                      !- Convection Coefficient 1 {W/m2-K}
    ,                        !- Convection Coefficient 1 Schedule Name
    ,                        !- Convection Coefficient 1 User Curve Name
    Inside,                  !- Convection Coefficient 2 Location
    Value,                   !- Convection Coefficient 2 Type
    8.29;                    !- Convection Coefficient 2 {W/m2-K}


! Block 1, Zone A, Wall - 21.600 m2 - 270.0°, Surface Area: 21.600m2
BuildingSurface:Detailed,
    Block1:ZoneA_Wall_4_0_0, !- Name
    Wall,                    !- Surface Type
    Project wall,            !- Construction Name
    Block1:ZoneA,            !- Zone Name
    Outdoors,                !- Outside Boundary Condition
    ,                        !- Outside Boundary Condition Object
    NoSun,                   !- Sun Exposure
    NoWind,                  !- Wind Exposure
    AutoCalculate,           !- View Factor to Ground
    4,                       !- Number of Vertices
    0,                       !- Vertex 1 X-coordinate {m}
    8,                       !- Vertex 1 Y-coordinate {m}
    0,                       !- Vertex 1 Z-coordinate {m}
    0,                       !- Vertex 2 X-coordinate {m}
    0,                       !- Vertex 2 Y-coordinate {m}
    0,                       !- Vertex 2 Z-coordinate {m}
    0,                       !- Vertex 3 X-coordinate {m}
    0,                       !- Vertex 3 Y-coordinate {m}
    2.7,                     !- Vertex 3 Z-coordinate {m}
    0,                       !- Vertex 4 X-coordinate {m}
    8,                       !- Vertex 4 Y-coordinate {m}
    2.7;                     !- Vertex 4 Z-coordinate {m}

SurfaceProperty:ConvectionCoefficients,
    Block1:ZoneA_Wall_4_0_0,  !- Surface Name
    Outside,                 !- Convection Coefficient 1 Location
    Value,                   !- Convection Coefficient 1 Type
    30.49,                      !- Convection Coefficient 1 {W/m2-K}
    ,                        !- Convection Coefficient 1 Schedule Name
    ,                        !- Convection Coefficient 1 User Curve Name
    Inside,                  !- Convection Coefficient 2 Location
    Value,                   !- Convection Coefficient 2 Type
    8.29;                    !- Convection Coefficient 2 {W/m2-K}


! Block 1, Zone A, Wall - 16.200 m2 - 180.0°, Surface Area: 16.200m2
BuildingSurface:Detailed,
    Block1:ZoneA_Wall_5_0_0, !- Name
    Wall,                    !- Surface Type
    Project wall,            !- Construction Name
    Block1:ZoneA,            !- Zone Name
    Outdoors,                !- Outside Boundary Condition
    ,                        !- Outside Boundary Condition Object
    NoSun,                   !- Sun Exposure
    NoWind,                  !- Wind Exposure
    AutoCalculate,           !- View Factor to Ground
    4,                       !- Number of Vertices
    0,                       !- Vertex 1 X-coordinate {m}
    0,                       !- Vertex 1 Y-coordinate {m}
    0,                       !- Vertex 1 Z-coordinate {m}
    6,                       !- Vertex 2 X-coordinate {m}
    0,                       !- Vertex 2 Y-coordinate {m}
    0,                       !- Vertex 2 Z-coordinate {m}
    6,                       !- Vertex 3 X-coordinate {m}
    0,                       !- Vertex 3 Y-coordinate {m}
    2.7,                     !- Vertex 3 Z-coordinate {m}
    0,                       !- Vertex 4 X-coordinate {m}
    0,                       !- Vertex 4 Y-coordinate {m}
    2.7;                     !- Vertex 4 Z-coordinate {m}

SurfaceProperty:ConvectionCoefficients,
    Block1:ZoneA_Wall_5_0_0,  !- Surface Name
    Outside,                 !- Convection Coefficient 1 Location
    Value,                   !- Convection Coefficient 1 Type
    30.49,                      !- Convection Coefficient 1 {W/m2-K}
    ,                        !- Convection Coefficient 1 Schedule Name
    ,                        !- Convection Coefficient 1 User Curve Name
    Inside,                  !- Convection Coefficient 2 Location
    Value,                   !- Convection Coefficient 2 Type
    8.29;                    !- Convection Coefficient 2 {W/m2-K}


! Block 1, Zone B, Ground floor - 48.000 m2 (Ground), Surface Area: 48.000m2
BuildingSurface:Detailed,
    Block1:ZoneB_GroundFloor_0_0_0,  !- Name
    Floor,                   !- Surface Type
    Project wall,            !- Construction Name
    Block1:ZoneB,            !- Zone Name
    Outdoors,                !- Outside Boundary Condition
    ,                        !- Outside Boundary Condition Object
    NoSun,                   !- Sun Exposure
    NoWind,                  !- Wind Exposure
    AutoCalculate,           !- View Factor to Ground
    4,                       !- Number of Vertices
    12,                      !- Vertex 1 X-coordinate {m}
    0,                       !- Vertex 1 Y-coordinate {m}
    0,                       !- Vertex 1 Z-coordinate {m}
    6,                       !- Vertex 2 X-coordinate {m}
    0,                       !- Vertex 2 Y-coordinate {m}
    0,                       !- Vertex 2 Z-coordinate {m}
    6,                       !- Vertex 3 X-coordinate {m}
    8,                       !- Vertex 3 Y-coordinate {m}
    0,                       !- Vertex 3 Z-coordinate {m}
    12,                      !- Vertex 4 X-coordinate {m}
    8,                       !- Vertex 4 Y-coordinate {m}
    0;                       !- Vertex 4 Z-coordinate {m}

SurfaceProperty:ConvectionCoefficients,
    Block1:ZoneB_GroundFloor_0_0_0,  !- Surface Name
    Outside,                 !- Convection Coefficient 1 Location
    Value,                   !- Convection Coefficient 1 Type
    30.49,                      !- Convection Coefficient 1 {W/m2-K}
    ,                        !- Convection Coefficient 1 Schedule Name