!-Generator IDFEditor 1.51
!-Option SortedOrder

!-NOTE: All comments with '!-' are ignored by the IDFEditor and are generated automatically.
!-      Use '!' comments if they need to be retained when using the IDFEditor.


!-   ===========  ALL OBJECTS IN CLASS: VERSION ===========

Version,
    9.4;                     !- Version Identifier


!-   ===========  ALL OBJECTS IN CLASS: BUILDING ===========

Building,
    Case430,                 !- Name
    0.0,                     !- North Axis {deg}
    Country,                 !- Terrain　★
    3.9999999E-02,           !- Loads Convergence Tolerance Value {W}
    4.0000002E-03,           !- Temperature Convergence Tolerance Value {deltaC} ★
    FullInteriorAndExterior, !- Solar Distribution ★
    25,                      !- Maximum Number of Warmup Days　★
    6;                       !- Minimum Number of Warmup Days


!-   ===========  ALL OBJECTS IN CLASS: SHADOWCALCULATION ===========

ShadowCalculation,
    PolygonClipping,         !- Shading Calculation Method
    Periodic,                !- Shading Calculation Update Frequency Method
    1;                       !- Shading Calculation Update Frequency


!-   ===========  ALL OBJECTS IN CLASS: SURFACECONVECTIONALGORITHM:INSIDE ===========

SurfaceConvectionAlgorithm:Inside,
    TARP;                    !- Algorithm


!-   ===========  ALL OBJECTS IN CLASS: SURFACECONVECTIONALGORITHM:OUTSIDE ===========

SurfaceConvectionAlgorithm:Outside,
    DOE-2;                   !- Algorithm


!-   ===========  ALL OBJECTS IN CLASS: TIMESTEP ===========

Timestep,
    4;                       !- Number of Timesteps per Hour ★


!-   ===========  ALL OBJECTS IN CLASS: SITE:LOCATION ===========

Site:Location,
    Denver-Stapleton CO USA TMY23062,  !- Name
    39.8,                    !- Latitude {deg}
    -104.9,                  !- Longitude {deg}
    -7.0,                    !- Time Zone {hr}
    1609.00;                 !- Elevation {m}


!-   ===========  ALL OBJECTS IN CLASS: RUNPERIOD ===========

RunPeriod,
    RUNPERIOD 1,             !- Name
    1,                       !- Begin Month
    1,                       !- Begin Day of Month
    ,                        !- Begin Year
    12,                      !- End Month
    31,                      !- End Day of Month
    ,                        !- End Year
    ,                        !- Day of Week for Start Day
    Yes,                     !- Use Weather File Holidays and Special Days　★
    Yes,                     !- Use Weather File Daylight Saving Period　★
    No,                      !- Apply Weekend Holiday Rule　★
    Yes,                     !- Use Weather File Rain Indicators　★
    Yes,                     !- Use Weather File Snow Indicators　★
    No;                      !- Treat Weather as Actual　★


!-   ===========  ALL OBJECTS IN CLASS: SITE:GROUNDTEMPERATURE:BUILDINGSURFACE ===========

Site:GroundTemperature:BuildingSurface,
    10,                      !- January Ground Temperature {C}
    10,                      !- February Ground Temperature {C}
    10,                      !- March Ground Temperature {C}
    10,                      !- April Ground Temperature {C}
    10,                      !- May Ground Temperature {C}
    10,                      !- June Ground Temperature {C}
    10,                      !- July Ground Temperature {C}
    10,                      !- August Ground Temperature {C}
    10,                      !- September Ground Temperature {C}
    10,                      !- October Ground Temperature {C}
    10,                      !- November Ground Temperature {C}
    10;                      !- December Ground Temperature {C}


!-   ===========  ALL OBJECTS IN CLASS: SITE:GROUNDREFLECTANCE ===========

Site:GroundReflectance,
    0.2,                     !- January Ground Reflectance {dimensionless}
    0.2,                     !- February Ground Reflectance {dimensionless}
    0.2,                     !- March Ground Reflectance {dimensionless}
    0.2,                     !- April Ground Reflectance {dimensionless}
    0.2,                     !- May Ground Reflectance {dimensionless}
    0.2,                     !- June Ground Reflectance {dimensionless}
    0.2,                     !- July Ground Reflectance {dimensionless}
    0.2,                     !- August Ground Reflectance {dimensionless}
    0.2,                     !- September Ground Reflectance {dimensionless}
    0.2,                     !- October Ground Reflectance {dimensionless}
    0.2,                     !- November Ground Reflectance {dimensionless}
    0.2;                     !- December Ground Reflectance {dimensionless}


!-   ===========  ALL OBJECTS IN CLASS: SCHEDULETYPELIMITS ===========

ScheduleTypeLimits,
    Fraction,                !- Name
    0.0,                     !- Lower Limit Value
    1.0,                     !- Upper Limit Value
    CONTINUOUS;              !- Numeric Type

ScheduleTypeLimits,
    Temperature,             !- Name
    -60,                     !- Lower Limit Value
    200,                     !- Upper Limit Value
    CONTINUOUS;              !- Numeric Type

ScheduleTypeLimits,
    Control Type,            !- Name
    0,                       !- Lower Limit Value
    4,                       !- Upper Limit Value
    DISCRETE;                !- Numeric Type


!-   ===========  ALL OBJECTS IN CLASS: SCHEDULE:DAY:HOURLY ===========

Schedule:Day:Hourly,
    Day Sch 1,               !- Name
    Fraction,                !- Schedule Type Limits Name
    1,                       !- Hour 1
    1,                       !- Hour 2
    1,                       !- Hour 3
    1,                       !- Hour 4
    1,                       !- Hour 5
    1,                       !- Hour 6
    1,                       !- Hour 7
    1,                       !- Hour 8
    1,                       !- Hour 9
    1,                       !- Hour 10
    1,                       !- Hour 11
    1,                       !- Hour 12
    1,                       !- Hour 13
    1,                       !- Hour 14
    1,                       !- Hour 15
    1,                       !- Hour 16
    1,                       !- Hour 17
    1,                       !- Hour 18
    1,                       !- Hour 19
    1,                       !- Hour 20
    1,                       !- Hour 21
    1,                       !- Hour 22
    1,                       !- Hour 23
    1;                       !- Hour 24

Schedule:Day:Hourly,
    Zone Heating Setpoint All Days,  !- Name
    Temperature,             !- Schedule Type Limits Name
    20.,                     !- Hour 1
    20.,                     !- Hour 2
    20.,                     !- Hour 3
    20.,                     !- Hour 4
    20.,                     !- Hour 5
    20.,                     !- Hour 6
    20.,                     !- Hour 7
    20.,                     !- Hour 8
    20.,                     !- Hour 9
    20.,                     !- Hour 10
    20.,                     !- Hour 11
    20.,                     !- Hour 12
    20.,                     !- Hour 13
    20.,                     !- Hour 14
    20.,                     !- Hour 15
    20.,                     !- Hour 16
    20.,                     !- Hour 17
    20.,                     !- Hour 18
    20.,                     !- Hour 19
    20.,                     !- Hour 20
    20.,                     !- Hour 21
    20.,                     !- Hour 22
    20.,                     !- Hour 23
    20.;                     !- Hour 24

Schedule:Day:Hourly,
    Zone Cooling Setpoint All Days,  !- Name
    Temperature,             !- Schedule Type Limits Name
    27.,                     !- Hour 1
    27.,                     !- Hour 2
    27.,                     !- Hour 3
    27.,                     !- Hour 4
    27.,                     !- Hour 5
    27.,                     !- Hour 6
    27.,                     !- Hour 7
    27.,                     !- Hour 8
    27.,                     !- Hour 9
    27.,                     !- Hour 10
    27.,                     !- Hour 11
    27.,                     !- Hour 12
    27.,                     !- Hour 13
    27.,                     !- Hour 14
    27.,                     !- Hour 15
    27.,                     !- Hour 16
    27.,                     !- Hour 17
    27.,                     !- Hour 18
    27.,                     !- Hour 19
    27.,                     !- Hour 20
    27.,                     !- Hour 21
    27.,                     !- Hour 22
    27.,                     !- Hour 23
    27.;                     !- Hour 24

Schedule:Day:Hourly,
    Control Type All Days,   !- Name
    Control Type,            !- Schedule Type Limits Name
    4,                       !- Hour 1
    4,                       !- Hour 2
    4,                       !- Hour 3
    4,                       !- Hour 4
    4,                       !- Hour 5
    4,                       !- Hour 6
    4,                       !- Hour 7
    4,                       !- Hour 8
    4,                       !- Hour 9
    4,                       !- Hour 10
    4,                       !- Hour 11
    4,                       !- Hour 12
    4,                       !- Hour 13
    4,                       !- Hour 14
    4,                       !- Hour 15
    4,                       !- Hour 16
    4,                       !- Hour 17
    4,                       !- Hour 18
    4,                       !- Hour 19
    4,                       !- Hour 20
    4,                       !- Hour 21
    4,                       !- Hour 22
    4,                       !- Hour 23
    4;                       !- Hour 24


!-   ===========  ALL OBJECTS IN CLASS: SCHEDULE:WEEK:DAILY ===========

Schedule:Week:Daily,
    Week Sch 1,              !- Name
    Day Sch 1,               !- Sunday Schedule:Day Name
    Day Sch 1,               !- Monday Schedule:Day Name
    Day Sch 1,               !- Tuesday Schedule:Day Name
    Day Sch 1,               !- Wednesday Schedule:Day Name
    Day Sch 1,               !- Thursday Schedule:Day Name
    Day Sch 1,               !- Friday Schedule:Day Name
    Day Sch 1,               !- Saturday Schedule:Day Name
    Day Sch 1,               !- Holiday Schedule:Day Name
    Day Sch 1,               !- SummerDesignDay Schedule:Day Name
    Day Sch 1,               !- WinterDesignDay Schedule:Day Name
    Day Sch 1,               !- CustomDay1 Schedule:Day Name
    Day Sch 1;               !- CustomDay2 Schedule:Day Name

Schedule:Week:Daily,
    Zone Heating Setpoint All Weeks,  !- Name
    Zone Heating Setpoint All Days,  !- Sunday Schedule:Day Name
    Zone Heating Setpoint All Days,  !- Monday Schedule:Day Name
    Zone Heating Setpoint All Days,  !- Tuesday Schedule:Day Name
    Zone Heating Setpoint All Days,  !- Wednesday Schedule:Day Name
    Zone Heating Setpoint All Days,  !- Thursday Schedule:Day Name
    Zone Heating Setpoint All Days,  !- Friday Schedule:Day Name
    Zone Heating Setpoint All Days,  !- Saturday Schedule:Day Name
    Zone Heating Setpoint All Days,  !- Holiday Schedule:Day Name
    Zone Heating Setpoint All Days,  !- SummerDesignDay Schedule:Day Name
    Zone Heating Setpoint All Days,  !- WinterDesignDay Schedule:Day Name
    Zone Heating Setpoint All Days,  !- CustomDay1 Schedule:Day Name
    Zone Heating Setpoint All Days;  !- CustomDay2 Schedule:Day Name

Schedule:Week:Daily,
    Zone Cooling Setpoint All Weeks,  !- Name
    Zone Cooling Setpoint All Days,  !- Sunday Schedule:Day Name
    Zone Cooling Setpoint All Days,  !- Monday Schedule:Day Name
    Zone Cooling Setpoint All Days,  !- Tuesday Schedule:Day Name
    Zone Cooling Setpoint All Days,  !- Wednesday Schedule:Day Name
    Zone Cooling Setpoint All Days,  !- Thursday Schedule:Day Name
    Zone Cooling Setpoint All Days,  !- Friday Schedule:Day Name
    Zone Cooling Setpoint All Days,  !- Saturday Schedule:Day Name
    Zone Cooling Setpoint All Days,  !- Holiday Schedule:Day Name
    Zone Cooling Setpoint All Days,  !- SummerDesignDay Schedule:Day Name
    Zone Cooling Setpoint All Days,  !- WinterDesignDay Schedule:Day Name
    Zone Cooling Setpoint All Days,  !- CustomDay1 Schedule:Day Name
    Zone Cooling Setpoint All Days;  !- CustomDay2 Schedule:Day Name

Schedule:Week:Daily,
    Control Type All Weeks,  !- Name
    Control Type All Days,   !- Sunday Schedule:Day Name
    Control Type All Days,   !- Monday Schedule:Day Name
    Control Type All Days,   !- Tuesday Schedule:Day Name
    Control Type All Days,   !- Wednesday Schedule:Day Name
    Control Type All Days,   !- Thursday Schedule:Day Name
    Control Type All Days,   !- Friday Schedule:Day Name
    Control Type All Days,   !- Saturday Schedule:Day Name
    Control Type All Days,   !- Holiday Schedule:Day Name
    Control Type All Days,   !- SummerDesignDay Schedule:Day Name
    Control Type All Days,   !- WinterDesignDay Schedule:Day Name
    Control Type All Days,   !- CustomDay1 Schedule:Day Name
    Control Type All Days;   !- CustomDay2 Schedule:Day Name


!-   ===========  ALL OBJECTS IN CLASS: SCHEDULE:YEAR ===========

Schedule:Year,
    Sch 1,                   !- Name
    Fraction,                !- Schedule Type Limits Name
    Week Sch 1,              !- Schedule:Week Name 1
    1,                       !- Start Month 1
    1,                       !- Start Day 1
    12,                      !- End Month 1
    31;                      !- End Day 1

Schedule:Year,
    Heating Setpoints,       !- Name
    Temperature,             !- Schedule Type Limits Name
    Zone Heating Setpoint All Weeks,  !- Schedule:Week Name 1
    1,                       !- Start Month 1
    1,                       !- Start Day 1
    12,                      !- End Month 1
    31;                      !- End Day 1

Schedule:Year,
    Cooling Setpoints,       !- Name
    Temperature,             !- Schedule Type Limits Name
    Zone Cooling Setpoint All Weeks,  !- Schedule:Week Name 1
    1,                       !- Start Month 1
    1,                       !- Start Day 1
    12,                      !- End Month 1
    31;                      !- End Day 1

Schedule:Year,
    Zone Control Type Sched, !- Name
    Control Type,            !- Schedule Type Limits Name
    Control Type All Weeks,  !- Schedule:Week Name 1
    1,                       !- Start Month 1
    1,                       !- Start Day 1
    12,                      !- End Month 1
    31;                      !- End Day 1


!-   ===========  ALL OBJECTS IN CLASS: MATERIAL ===========

Material,
    PLASTERBOARD-12mm,       !- Name
    Rough,                   !- Roughness
    0.01200,                 !- Thickness {m}
    0.16000,                 !- Conductivity {W/m-K}
    950.000,                 !- Density {kg/m3}
    840.00,                  !- Specific Heat {J/kg-K}
    0.9000000,               !- Thermal Absorptance
    0.600000,                !- Solar Absorptance
    0.600000;                !- Visible Absorptance

Material,
    FIBERGLASS-66mm,         !- Name
    Rough,                   !- Roughness
    0.066,                   !- Thickness {m}
    0.040,                   !- Conductivity {W/m-K}
    12.000,                  !- Density {kg/m3}
    840.00,                  !- Specific Heat {J/kg-K}
    0.9000000,               !- Thermal Absorptance
    0.600000,                !- Solar Absorptance
    0.600000;                !- Visible Absorptance

Material, !changed on 210825 for 430 *:changed item
    WOODSIDING-9mm,          !- Name
    Rough,                   !- Roughness
    0.00900,                 !- Thickness {m}
    0.14000,                 !- Conductivity {W/m-K}
    530.000,                 !- Density {kg/m3}
    900.00,                  !- Specific Heat {J/kg-K}
    0.9000000,               !- Thermal Absorptance
    0.600000,                !- Solar Absorptance *
    0.600000;                !- Visible Absorptance *
!    0.100000,                !- Solar Absorptance *
!    0.100000;                !- Visible Absorptance *

Material,
    TIMBERFLOORING-25mm,     !- Name
    Rough,                   !- Roughness
    0.02500,                 !- Thickness {m}
    0.14000,                 !- Conductivity {W/m-K}
    650.000,                 !- Density {kg/m3}
    1200.0,                  !- Specific Heat {J/kg-K}
    0.9000000,               !- Thermal Absorptance
    0.600000,                !- Solar Absorptance
    0.600000;                !- Visible Absorptance

Material,
    FIBERGLASS-1003mm,       !- Name
    Rough,                   !- Roughness
    1.003,                   !- Thickness {m}
    0.040,                   !- Conductivity {W/m-K}
    1.000,                   !- Density {kg/m3}
    100.0,                   !- Specific Heat {J/kg-K}
    0.9000000,               !- Thermal Absorptance
    0.600000,                !- Solar Absorptance
    0.600000;                !- Visible Absorptance

Material,
    PLASTERBOARD-10mm,       !- Name
    Rough,                   !- Roughness
    0.01000,                 !- Thickness {m}
    0.16000,                 !- Conductivity {W/m-K}
    950.000,                 !- Density {kg/m3}
    840.00,                  !- Specific Heat {J/kg-K}
    0.9000000,               !- Thermal Absorptance
    0.600000,                !- Solar Absorptance
    0.600000;                !- Visible Absorptance

Material,
    FIBERGLASS-111mm,        !- Name
    Rough,                   !- Roughness
    0.1118,                  !- Thickness {m}
    0.040,                   !- Conductivity {W/m-K}
    12.000,                  !- Density {kg/m3}
    840.00,                  !- Specific Heat {J/kg-K}
    0.9000000,               !- Thermal Absorptance
    0.600000,                !- Solar Absorptance
    0.600000;                !- Visible Absorptance

Material, !changed on 210805 for 430 *:changed item
    ROOFDECK-19mm,           !- Name
    Rough,                   !- Roughness
    0.01900,                 !- Thickness {m}
    0.14000,                 !- Conductivity {W/m-K}
    530.000,                 !- Density {kg/m3}
    900.00,                  !- Specific Heat {J/kg-K}
    0.9000000,               !- Thermal Absorptance
    0.600000,                !- Solar Absorptance *
    0.600000;                !- Visible Absorptance *
!    0.100000,                !- Solar Absorptance *
!    0.100000;                !- Visible Absorptance *

Material, !added on 210805 for 400
    HIGH CONDUCTANCE WALL-INSIDE,           !- Name
    VerySmooth,                             !- Roughness
    0.003175,                               !- Thickness {m}
    1.06,                                   !- Conductivity {W/m-K
    2500,                                   !- Density {kg/m3}
    750,                                    !- Specific Heat {J/kg
    0.9,                                    !- Thermal Absorptance
!    0.1,                                    !- Solar Absorptance
!    0.1;                                    !- Visible Absorptance
    0.6,                                    !- Solar Absorptance
    0.6;                                    !- Visible Absorptance

Material, !added on 210805 for 400
    HIGH CONDUCTANCE WALL-OUTSIDE,          !- Name
    VerySmooth,                             !- Roughness
    0.003175,                               !- Thickness {m}
    1.06,                                   !- Conductivity {W/m-K
    2500,                                   !- Density {kg/m3}
    750,                                    !- Specific Heat {J/kg
    0.9,                                    !- Thermal Absorptance
!    0.1,                                    !- Solar Absorptance
!    0.1;                                    !- Visible Absorptance
    0.6,                                    !- Solar Absorptance
    0.6;                                    !- Visible Absorptance

Material:AirGap, !added on 210805 for 400
    AirSpaceResistance1,                    !- Name
    0.1588;                                 !- Thermal Resistance {m2-K/W}

!-   ===========  ALL OBJECTS IN CLASS: WINDOWMATERIAL:GLAZING ===========

WindowMaterial:Glazing,
    GlassType1,              !- Name
    SpectralAverage,         !- Optical Data Type
    ,                        !- Window Glass Spectral Data Set Name
    0.003175,                !- Thickness {m}
    0.86156,                 !- Solar Transmittance at Normal Incidence
    0.07846,                 !- Front Side Solar Reflectance at Normal Incidence
    0.07846,                 !- Back Side Solar Reflectance at Normal Incidence
    0.91325,                 !- Visible Transmittance at Normal Incidence
    0.08200,                 !- Front Side Visible Reflectance at Normal Incidence
    0.08200,                 !- Back Side Visible Reflectance at Normal Incidence
    0.0,                     !- Infrared Transmittance at Normal Incidence
    0.84,                    !- Front Side Infrared Hemispherical Emissivity
    0.84,                    !- Back Side Infrared Hemispherical Emissivity
    1.06;                    !- Conductivity {W/m-K}


!-   ===========  ALL OBJECTS IN CLASS: WINDOWMATERIAL:GAS ===========

WindowMaterial:Gas,
    AirSpaceResistance,      !- Name
    AIR,                     !- Gas Type
    0.013;                   !- Thickness {m}


!-   ===========  ALL OBJECTS IN CLASS: CONSTRUCTION ===========

Construction,
    Wall-configure,          !- Name
    WOODSIDING-9mm,          !- Outside Layer
    FIBERGLASS-66mm,         !- Layer 2
    PLASTERBOARD-12mm;       !- Layer 3

Construction,
    Floor_configure,         !- Name
    FIBERGLASS-1003mm,       !- Outside Layer
    TIMBERFLOORING-25mm;     !- Layer 2

Construction,
    Roof_configure,          !- Name
    ROOFDECK-19mm,           !- Outside Layer
    FIBERGLASS-111mm,        !- Layer 2
    PLASTERBOARD-10mm;       !- Layer 3

Construction,
    Window_configure,        !- Name
    GlassType1,              !- Outside Layer
    AirSpaceResistance,      !- Layer 2
    GlassType1;              !- Layer 3

Construction, !added on 210805 for 400
    High_conductance_wall,                  !- Name
    HIGH CONDUCTANCE WALL-OUTSIDE,          !- Layer 1
    AirSpaceResistance1,                    !- Layer 2 *xxx
    HIGH CONDUCTANCE WALL-INSIDE;           !- Layer 3

!-   ===========  ALL OBJECTS IN CLASS: GLOBALGEOMETRYRULES ===========

GlobalGeometryRules,
    UpperLeftCorner,         !- Starting Vertex Position
    Counterclockwise,        !- Vertex Entry Direction
    World;                   !- Coordinate System


!-   ===========  ALL OBJECTS IN CLASS: ZONE ===========

Zone,
    Zone1,                   !- Name
    0.0,                     !- Direction of Relative North {deg}
    0.0,                     !- X Origin {m}
    0.0,                     !- Y Origin {m}
    0.0,                     !- Z Origin {m}
    ,                        !- Type
    1,                       !- Multiplier
    2.7000,                  !- Ceiling Height {m}
    129.6;                   !- Volume {m3}


!-   ===========  ALL OBJECTS IN CLASS: BUILDINGSURFACE:DETAILED ===========

BuildingSurface:Detailed,
    Floor,                   !- Name
    Floor,                   !- Surface Type
    Floor_configure,         !- Construction Name
    Zone1,                   !- Zone Name
    Ground,                  !- Outside Boundary Condition
    ,                        !- Outside Boundary Condition Object
    NoSun,                   !- Sun Exposure
    NoWind,                  !- Wind Exposure
    0,                       !- View Factor to Ground
    4,                       !- Number of Vertices
    0.000000000000,          !- Vertex 1 X-coordinate {m}
    0.000000000000,          !- Vertex 1 Y-coordinate {m}
    0.000000000000,          !- Vertex 1 Z-coordinate {m}
    0.000000000000,          !- Vertex 2 X-coordinate {m}
    6.000000000000,          !- Vertex 2 Y-coordinate {m}
    0.000000000000,          !- Vertex 2 Z-coordinate {m}
    8.000000000000,          !- Vertex 3 X-coordinate {m}
    6.000000000000,          !- Vertex 3 Y-coordinate {m}
    0.000000000000,          !- Vertex 3 Z-coordinate {m}
    8.000000000000,          !- Vertex 4 X-coordinate {m}
    0.000000000000,          !- Vertex 4 Y-coordinate {m}
    0.000000000000;          !- Vertex 4 Z-coordinate {m}

BuildingSurface:Detailed,
    Roof,                    !- Name
    Roof,                    !- Surface Type
    Roof_configure,          !- Construction Name
    Zone1,                   !- Zone Name
    Outdoors,                !- Outside Boundary Condition
    ,                        !- Outside Boundary Condition Object
    SunExposed,              !- Sun Exposure
    WindExposed,             !- Wind Exposure
    0,                       !- View Factor to Ground
    4,                       !- Number of Vertices
    0.000000000000,          !- Vertex 1 X-coordinate {m}
    6.000000000000,          !- Vertex 1 Y-coordinate {m}
    2.700000000000,          !- Vertex 1 Z-coordinate {m}
    0.000000000000,          !- Vertex 2 X-coordinate {m}
    0.000000000000,          !- Vertex 2 Y-coordinate {m}
    2.700000000000,          !- Vertex 2 Z-coordinate {m}
    8.000000000000,          !- Vertex 3 X-coordinate {m}
    0.000000000000,          !- Vertex 3 Y-coordinate {m}
    2.700000000000,          !- Vertex 3 Z-coordinate {m}
    8.000000000000,          !- Vertex 4 X-coordinate {m}
    6.000000000000,          !- Vertex 4 Y-coordinate {m}
    2.700000000000;          !- Vertex 4 Z-coordinate {m}

BuildingSurface:Detailed,
    Wall_S,                  !- Name
    Wall,                    !- Surface Type
    Wall-configure,          !- Construction Name
    Zone1,                   !- Zone Name
    Outdoors,                !- Outside Boundary Condition
    ,                        !- Outside Boundary Condition Object
    SunExposed,              !- Sun Exposure
    WindExposed,             !- Wind Exposure
    0.5,                     !- View Factor to Ground
    4,                       !- Number of Vertices
    0.000000000000,          !- Vertex 1 X-coordinate {m}
    0.000000000000,          !- Vertex 1 Y-coordinate {m}
    2.700000000000,          !- Vertex 1 Z-coordinate {m}
    0.000000000000,          !- Vertex 2 X-coordinate {m}
    0.000000000000,          !- Vertex 2 Y-coordinate {m}
    0.000000000000,          !- Vertex 2 Z-coordinate {m}
    8.000000000000,          !- Vertex 3 X-coordinate {m}
    0.000000000000,          !- Vertex 3 Y-coordinate {m}
    0.000000000000,          !- Vertex 3 Z-coordinate {m}
    8.000000000000,          !- Vertex 4 X-coordinate {m}
    0.000000000000,          !- Vertex 4 Y-coordinate {m}
    2.700000000000;          !- Vertex 4 Z-coordinate {m}

BuildingSurface:Detailed,
    Wall_N,                  !- Name
    Wall,                    !- Surface Type
    Wall-configure,          !- Construction Name
    Zone1,                   !- Zone Name
    Outdoors,                !- Outside Boundary Condition
    ,                        !- Outside Boundary Condition Object
    SunExposed,              !- Sun Exposure
    WindExposed,             !- Wind Exposure
    0.5,                     !- View Factor to Ground
    4,                       !- Number of Vertices
    8.000000000000,          !- Vertex 1 X-coordinate {m}
    6.000000000000,          !- Vertex 1 Y-coordinate {m}
    2.700000000000,          !- Vertex 1 Z-coordinate {m}
    8.000000000000,          !- Vertex 2 X-coordinate {m}
    6.000000000000,          !- Vertex 2 Y-coordinate {m}
    0.000000000000,          !- Vertex 2 Z-coordinate {m}
    0.000000000000,          !- Vertex 3 X-coordinate {m}
    6.000000000000,          !- Vertex 3 Y-coordinate {m}
    0.000000000000,          !- Vertex 3 Z-coordinate {m}
    0.000000000000,          !- Vertex 4 X-coordinate {m}
    6.000000000000,          !- Vertex 4 Y-coordinate {m}
    2.700000000000;          !- Vertex 4 Z-coordinate {m}


BuildingSurface:Detailed,
    Wall_W,                  !- Name
    Wall,                    !- Surface Type
    Wall-configure,          !- Construction Name
    Zone1,                   !- Zone Name
    Outdoors,                !- Outside Boundary Condition
    ,                        !- Outside Boundary Condition Object
    SunExposed,              !- Sun Exposure
    WindExposed,             !- Wind Exposure
    0.5,                     !- View Factor to Ground
    4,                       !- Number of Vertices
    0.000000000000,          !- Vertex 1 X-coordinate {m}
    6.000000000000,          !- Vertex 1 Y-coordinate {m}
    2.700000000000,          !- Vertex 1 Z-coordinate {m}
    0.000000000000,          !- Vertex 2 X-coordinate {m}
    6.000000000000,          !- Vertex 2 Y-coordinate {m}
    0.000000000000,          !- Vertex 2 Z-coordinate {m}
    0.000000000000,          !- Vertex 3 X-coordinate {m}
    0.000000000000,          !- Vertex 3 Y-coordinate {m}
    0.000000000000,          !- Vertex 3 Z-coordinate {m}
    0.000000000000,          !- Vertex 4 X-coordinate {m}
    0.000000000000,          !- Vertex 4 Y-coordinate {m}