!-Generator eplusr
!-Option SortedOrder

!-NOTE: All comments with '!-' are ignored by the IDFEditor and are generated automatically.
!-      Use '!' comments if they need to be retained when using the IDFEditor.


!-   ===========  ALL OBJECTS IN CLASS: VERSION ===========

! File generated by DesignBuilder - 6.1.5.001 3/25/2021 - 5:07:06 PM
! Source file: C:\Users\eikic\OneDrive - National University of Singapore\Documents\GitHub\EnergyPlus_SHASEG1008\DesignBuilder\Case600.dsb
Version,
    9.4;                     !- Version Identifier


!-   ===========  ALL OBJECTS IN CLASS: SIMULATIONCONTROL ===========

SimulationControl,
    Yes,                     !- Do Zone Sizing Calculation
    Yes,                     !- Do System Sizing Calculation
    No,                      !- Do Plant Sizing Calculation
    No,                      !- Run Simulation for Sizing Periods
    Yes,                     !- Run Simulation for Weather File Run Periods
    No,                      !- Do HVAC Sizing Simulation for Sizing Periods
    1;                       !- Maximum Number of HVAC Sizing Simulation Passes


!-   ===========  ALL OBJECTS IN CLASS: BUILDING ===========

Building,
    Building,                !- Name
    0,                       !- North Axis {deg}
    Suburbs,                 !- Terrain
    0.04,                    !- Loads Convergence Tolerance Value {W}
    0.4,                     !- Temperature Convergence Tolerance Value {deltaC}
    FullExterior,            !- Solar Distribution
    25,                      !- Maximum Number of Warmup Days
    6;                       !- Minimum Number of Warmup Days


!-   ===========  ALL OBJECTS IN CLASS: SHADOWCALCULATION ===========

ShadowCalculation,
    PolygonClipping,         !- Shading Calculation Method
    Periodic,                !- Shading Calculation Update Frequency Method
    20,                      !- Shading Calculation Update Frequency
    15000,                   !- Maximum Figures in Shadow Overlap Calculations
    SutherlandHodgman,       !- Polygon Clipping Algorithm
    ;                        !- Pixel Counting Resolution


!-   ===========  ALL OBJECTS IN CLASS: SURFACECONVECTIONALGORITHM:INSIDE ===========

SurfaceConvectionAlgorithm:Inside,
    TARP;                    !- Algorithm


!-   ===========  ALL OBJECTS IN CLASS: SURFACECONVECTIONALGORITHM:OUTSIDE ===========

SurfaceConvectionAlgorithm:Outside,
    DOE-2;                   !- Algorithm


!-   ===========  ALL OBJECTS IN CLASS: HEATBALANCEALGORITHM ===========

HeatBalanceAlgorithm,
    ConductionTransferFunction,  !- Algorithm
    2000,                    !- Surface Temperature Upper Limit {C}
    1e-08,                   !- Minimum Surface Convection Heat Transfer Coefficient Value {W/m2-K}
    1000;                    !- Maximum Surface Convection Heat Transfer Coefficient Value {W/m2-K}


!-   ===========  ALL OBJECTS IN CLASS: ZONECAPACITANCEMULTIPLIER:RESEARCHSPECIAL ===========

ZoneCapacitanceMultiplier:ResearchSpecial,
    All,                     !- Name
    ,                        !- Zone or ZoneList Name
    1,                       !- Temperature Capacity Multiplier
    1,                       !- Humidity Capacity Multiplier
    1,                       !- Carbon Dioxide Capacity Multiplier
    1;                       !- Generic Contaminant Capacity Multiplier


!-   ===========  ALL OBJECTS IN CLASS: TIMESTEP ===========

Timestep,
    2;                       !- Number of Timesteps per Hour


!-   ===========  ALL OBJECTS IN CLASS: CONVERGENCELIMITS ===========

ConvergenceLimits,
    1,                       !- Minimum System Timestep {minutes}
    25;                      !- Maximum HVAC Iterations


!-   ===========  ALL OBJECTS IN CLASS: SITE:LOCATION ===========

! Hourly weather file: C:\ProgramData\DesignBuilder\Weather Data\USA_CO_DENVER-STAPLETON_TMY.epw
Site:Location,
    AS14O_Case6OO (O1-O1:31-12)  (01-01:31-12),  !- Name
    39.8,                    !- Latitude {deg}
    -104.9,                  !- Longitude {deg}
    -7,                      !- Time Zone {hr}
    1609;                    !- Elevation {m}


!-   ===========  ALL OBJECTS IN CLASS: SIZINGPERIOD:DESIGNDAY ===========

SizingPeriod:DesignDay,
    Summer Design Day in AS14O_Case6OO (O1-O1:31-12) Jul,  !- Name
    7,                       !- Month
    15,                      !- Day of Month
    SummerDesignDay,         !- Day Type
    36.8,                    !- Maximum Dry-Bulb Temperature {C}
    18.2,                    !- Daily Dry-Bulb Temperature Range {deltaC}
    ,                        !- Dry-Bulb Temperature Range Modifier Type
    ,                        !- Dry-Bulb Temperature Range Modifier Day Schedule Name
    WetBulb,                 !- Humidity Condition Type
    16.3,                    !- Wetbulb or DewPoint at Maximum Dry-Bulb {C}
    ,                        !- Humidity Condition Day Schedule Name
    ,                        !- Humidity Ratio at Maximum Dry-Bulb {kgWater/kgDryAir}
    ,                        !- Enthalpy at Maximum Dry-Bulb {J/kg}
    ,                        !- Daily Wet-Bulb Temperature Range {deltaC}
    83431,                   !- Barometric Pressure {Pa}
    0,                       !- Wind Speed {m/s}
    0,                       !- Wind Direction {deg}
    No,                      !- Rain Indicator
    No,                      !- Snow Indicator
    Yes,                     !- Daylight Saving Time Indicator
    ASHRAEClearSky,          !- Solar Model Indicator
    ,                        !- Beam Solar Day Schedule Name
    ,                        !- Diffuse Solar Day Schedule Name
    ,                        !- ASHRAE Clear Sky Optical Depth for Beam Irradiance (taub) {dimensionless}
    ,                        !- ASHRAE Clear Sky Optical Depth for Diffuse Irradiance (taud) {dimensionless}
    0.98;                    !- Sky Clearness

SizingPeriod:DesignDay,
    Summer Design Day in AS14O_Case6OO (O1-O1:31-12) Aug,  !- Name
    8,                       !- Month
    15,                      !- Day of Month
    SummerDesignDay,         !- Day Type
    35,                      !- Maximum Dry-Bulb Temperature {C}
    17.4,                    !- Daily Dry-Bulb Temperature Range {deltaC}
    ,                        !- Dry-Bulb Temperature Range Modifier Type
    ,                        !- Dry-Bulb Temperature Range Modifier Day Schedule Name
    WetBulb,                 !- Humidity Condition Type
    16.2,                    !- Wetbulb or DewPoint at Maximum Dry-Bulb {C}
    ,                        !- Humidity Condition Day Schedule Name
    ,                        !- Humidity Ratio at Maximum Dry-Bulb {kgWater/kgDryAir}
    ,                        !- Enthalpy at Maximum Dry-Bulb {J/kg}
    ,                        !- Daily Wet-Bulb Temperature Range {deltaC}
    83431,                   !- Barometric Pressure {Pa}
    0,                       !- Wind Speed {m/s}
    0,                       !- Wind Direction {deg}
    No,                      !- Rain Indicator
    No,                      !- Snow Indicator
    Yes,                     !- Daylight Saving Time Indicator
    ASHRAEClearSky,          !- Solar Model Indicator
    ,                        !- Beam Solar Day Schedule Name
    ,                        !- Diffuse Solar Day Schedule Name
    ,                        !- ASHRAE Clear Sky Optical Depth for Beam Irradiance (taub) {dimensionless}
    ,                        !- ASHRAE Clear Sky Optical Depth for Diffuse Irradiance (taud) {dimensionless}
    0.98;                    !- Sky Clearness

SizingPeriod:DesignDay,
    Summer Design Day in AS14O_Case6OO (O1-O1:31-12) Sep,  !- Name
    9,                       !- Month
    15,                      !- Day of Month
    SummerDesignDay,         !- Day Type
    32.7,                    !- Maximum Dry-Bulb Temperature {C}
    18.1,                    !- Daily Dry-Bulb Temperature Range {deltaC}
    ,                        !- Dry-Bulb Temperature Range Modifier Type
    ,                        !- Dry-Bulb Temperature Range Modifier Day Schedule Name
    WetBulb,                 !- Humidity Condition Type
    15.5,                    !- Wetbulb or DewPoint at Maximum Dry-Bulb {C}
    ,                        !- Humidity Condition Day Schedule Name
    ,                        !- Humidity Ratio at Maximum Dry-Bulb {kgWater/kgDryAir}
    ,                        !- Enthalpy at Maximum Dry-Bulb {J/kg}
    ,                        !- Daily Wet-Bulb Temperature Range {deltaC}
    83431,                   !- Barometric Pressure {Pa}
    0,                       !- Wind Speed {m/s}
    0,                       !- Wind Direction {deg}
    No,                      !- Rain Indicator
    No,                      !- Snow Indicator
    Yes,                     !- Daylight Saving Time Indicator
    ASHRAEClearSky,          !- Solar Model Indicator
    ,                        !- Beam Solar Day Schedule Name
    ,                        !- Diffuse Solar Day Schedule Name
    ,                        !- ASHRAE Clear Sky Optical Depth for Beam Irradiance (taub) {dimensionless}
    ,                        !- ASHRAE Clear Sky Optical Depth for Diffuse Irradiance (taud) {dimensionless}
    0.98;                    !- Sky Clearness

SizingPeriod:DesignDay,
    Winter Design Day in AS14O_Case6OO (O1-O1:31-12),  !- Name
    1,                       !- Month
    15,                      !- Day of Month
    WinterDesignDay,         !- Day Type
    -18.6,                   !- Maximum Dry-Bulb Temperature {C}
    0,                       !- Daily Dry-Bulb Temperature Range {deltaC}
    ,                        !- Dry-Bulb Temperature Range Modifier Type
    ,                        !- Dry-Bulb Temperature Range Modifier Day Schedule Name
    WetBulb,                 !- Humidity Condition Type
    -18.6,                   !- Wetbulb or DewPoint at Maximum Dry-Bulb {C}
    ,                        !- Humidity Condition Day Schedule Name
    ,                        !- Humidity Ratio at Maximum Dry-Bulb {kgWater/kgDryAir}
    ,                        !- Enthalpy at Maximum Dry-Bulb {J/kg}
    ,                        !- Daily Wet-Bulb Temperature Range {deltaC}
    83431,                   !- Barometric Pressure {Pa}
    12.2,                    !- Wind Speed {m/s}
    0,                       !- Wind Direction {deg}
    No,                      !- Rain Indicator
    No,                      !- Snow Indicator
    No,                      !- Daylight Saving Time Indicator
    ,                        !- Solar Model Indicator
    ,                        !- Beam Solar Day Schedule Name
    ,                        !- Diffuse Solar Day Schedule Name
    ,                        !- ASHRAE Clear Sky Optical Depth for Beam Irradiance (taub) {dimensionless}
    ,                        !- ASHRAE Clear Sky Optical Depth for Diffuse Irradiance (taud) {dimensionless}
    0;                       !- Sky Clearness


!-   ===========  ALL OBJECTS IN CLASS: RUNPERIOD ===========

RunPeriod,
    AS14O_Case6OO (O1-O1:31-12),  !- Name
    1,                       !- Begin Month
    1,                       !- Begin Day of Month
    ,                        !- Begin Year
    12,                      !- End Month
    31,                      !- End Day of Month
    ,                        !- End Year
    ,                        !- Day of Week for Start Day
    No,                      !- Use Weather File Holidays and Special Days
    No,                      !- Use Weather File Daylight Saving Period
    Yes,                     !- Apply Weekend Holiday Rule
    Yes,                     !- Use Weather File Rain Indicators
    Yes,                     !- Use Weather File Snow Indicators
    ;                        !- Treat Weather as Actual


!-   ===========  ALL OBJECTS IN CLASS: RUNPERIODCONTROL:DAYLIGHTSAVINGTIME ===========

RunPeriodControl:DaylightSavingTime,
    1st Sunday in April,     !- Start Date
    Last Sunday in October;  !- End Date


!-   ===========  ALL OBJECTS IN CLASS: SITE:GROUNDTEMPERATURE:BUILDINGSURFACE ===========

Site:GroundTemperature:BuildingSurface,
    18,                      !- January Ground Temperature {C}
    18,                      !- February Ground Temperature {C}
    18,                      !- March Ground Temperature {C}
    18,                      !- April Ground Temperature {C}
    18,                      !- May Ground Temperature {C}
    18,                      !- June Ground Temperature {C}
    18,                      !- July Ground Temperature {C}
    18,                      !- August Ground Temperature {C}
    18,                      !- September Ground Temperature {C}
    18,                      !- October Ground Temperature {C}
    18,                      !- November Ground Temperature {C}
    18;                      !- December Ground Temperature {C}


!-   ===========  ALL OBJECTS IN CLASS: SITE:GROUNDTEMPERATURE:FCFACTORMETHOD ===========

Site:GroundTemperature:FCfactorMethod,
    -0.36,                   !- January Ground Temperature {C}
    -1.35,                   !- February Ground Temperature {C}
    0.4,                     !- March Ground Temperature {C}
    3.13,                    !- April Ground Temperature {C}
    10.29,                   !- May Ground Temperature {C}
    15.81,                   !- June Ground Temperature {C}
    19.53,                   !- July Ground Temperature {C}
    20.67,                   !- August Ground Temperature {C}
    18.74,                   !- September Ground Temperature {C}
    14.45,                   !- October Ground Temperature {C}
    8.72,                    !- November Ground Temperature {C}
    3.41;                    !- December Ground Temperature {C}


!-   ===========  ALL OBJECTS IN CLASS: SITE:GROUNDTEMPERATURE:SHALLOW ===========

Site:GroundTemperature:Shallow,
    14,                      !- January Surface Ground Temperature {C}
    14,                      !- February Surface Ground Temperature {C}
    14,                      !- March Surface Ground Temperature {C}
    14,                      !- April Surface Ground Temperature {C}
    14,                      !- May Surface Ground Temperature {C}
    14,                      !- June Surface Ground Temperature {C}
    14,                      !- July Surface Ground Temperature {C}
    14,                      !- August Surface Ground Temperature {C}
    14,                      !- September Surface Ground Temperature {C}
    14,                      !- October Surface Ground Temperature {C}
    14,                      !- November Surface Ground Temperature {C}
    14;                      !- December Surface Ground Temperature {C}


!-   ===========  ALL OBJECTS IN CLASS: SITE:GROUNDTEMPERATURE:DEEP ===========

Site:GroundTemperature:Deep,
    14,                      !- January Deep Ground Temperature {C}
    14,                      !- February Deep Ground Temperature {C}
    14,                      !- March Deep Ground Temperature {C}
    14,                      !- April Deep Ground Temperature {C}
    14,                      !- May Deep Ground Temperature {C}
    14,                      !- June Deep Ground Temperature {C}
    14,                      !- July Deep Ground Temperature {C}
    14,                      !- August Deep Ground Temperature {C}
    14,                      !- September Deep Ground Temperature {C}
    14,                      !- October Deep Ground Temperature {C}
    14,                      !- November Deep Ground Temperature {C}
    14;                      !- December Deep Ground Temperature {C}


!-   ===========  ALL OBJECTS IN CLASS: SITE:GROUNDREFLECTANCE ===========

Site:GroundReflectance,
    0.2,                     !- January Ground Reflectance {dimensionless}
    0.2,                     !- February Ground Reflectance {dimensionless}
    0.2,                     !- March Ground Reflectance {dimensionless}
    0.2,                     !- April Ground Reflectance {dimensionless}
    0.2,                     !- May Ground Reflectance {dimensionless}
    0.2,                     !- June Ground Reflectance {dimensionless}
    0.2,                     !- July Ground Reflectance {dimensionless}
    0.2,                     !- August Ground Reflectance {dimensionless}
    0.2,                     !- September Ground Reflectance {dimensionless}
    0.2,                     !- October Ground Reflectance {dimensionless}
    0.2,                     !- November Ground Reflectance {dimensionless}
    0.2;                     !- December Ground Reflectance {dimensionless}


!-   ===========  ALL OBJECTS IN CLASS: SITE:GROUNDREFLECTANCE:SNOWMODIFIER ===========

Site:GroundReflectance:SnowModifier,
    2,                       !- Ground Reflected Solar Modifier
    2;                       !- Daylighting Ground Reflected Solar Modifier


!-   ===========  ALL OBJECTS IN CLASS: SCHEDULETYPELIMITS ===========

ScheduleTypeLimits,
    Any Number;              !- Name

ScheduleTypeLimits,
    Fraction,                !- Name
    0,                       !- Lower Limit Value
    1,                       !- Upper Limit Value
    CONTINUOUS;              !- Numeric Type

ScheduleTypeLimits,
    Temperature,             !- Name
    -60,                     !- Lower Limit Value
    200,                     !- Upper Limit Value
    CONTINUOUS;              !- Numeric Type

ScheduleTypeLimits,
    Control Type,            !- Name
    0,                       !- Lower Limit Value
    4,                       !- Upper Limit Value
    DISCRETE;                !- Numeric Type

ScheduleTypeLimits,
    On/Off,                  !- Name
    0,                       !- Lower Limit Value
    1,                       !- Upper Limit Value
    DISCRETE;                !- Numeric Type


!-   ===========  ALL OBJECTS IN CLASS: SCHEDULE:COMPACT ===========

Schedule:Compact,
    On,                      !- Name
    Any Number,              !- Schedule Type Limits Name
    Through: 12/31,          !- Field 1
    For: AllDays,            !- Field 2
    Until: 24:00,            !- Field 3
    1;                       !- Field 4

Schedule:Compact,
    Off,                     !- Name
    Any Number,              !- Schedule Type Limits Name
    Through: 12/31,          !- Field 1
    For: AllDays,            !- Field 2
    Until: 24:00,            !- Field 3
    0;                       !- Field 4

! Schedule: On 24/7
Schedule:Compact,
    On 24/7,                 !- Name
    Any Number,              !- Schedule Type Limits Name
    Through: 12/31,          !- Field 1
    For: AllDays,            !- Field 2
    Until: 24:00,            !- Field 3
    1;                       !- Field 4

! Schedule: On 24/7
Schedule:Compact,
    HVAC4 24/7,                 !- Name
    Any Number,              !- Schedule Type Limits Name
    Through: 12/31,          !- Field 1
    For: AllDays,            !- Field 2
    Until: 24:00,            !- Field 3
    4;                       !- Field 4

! Modified schedule: On 24/7
Schedule:Compact,
    Block1:Zone1 Heating Setpoint Schedule,  !- Name
    Any Number,              !- Schedule Type Limits Name
    Through: 12/31,          !- Field 1
    For: AllDays,            !- Field 2
    Until: 24:00,            !- Field 3
    20;                      !- Field 4

! Modified schedule: On 24/7
Schedule:Compact,
    Block1:Zone1 Cooling SP Sch,  !- Name
    Any Number,              !- Schedule Type Limits Name
    Through: 12/31,          !- Field 1
    For: AllDays,            !- Field 2
    Until: 24:00,            !- Field 3
    27;                      !- Field 4

! Modified schedule: On 24/7
Schedule:Compact,
    Block1:Zone1 Heating Availability Sch,  !- Name
    Any Number,              !- Schedule Type Limits Name
    Through: 12/31,          !- Field 1
    For: AllDays,            !- Field 2
    Until: 24:00,            !- Field 3
    0;                       !- Field 4

! Modified schedule: On 24/7
Schedule:Compact,
    Block1:Zone1 Cooling Availability Sch,  !- Name
    Any Number,              !- Schedule Type Limits Name
    Through: 12/31,          !- Field 1
    For: AllDays,            !- Field 2
    Until: 24:00,            !- Field 3
    0;                       !- Field 4


!-   ===========  ALL OBJECTS IN CLASS: MATERIAL ===========

! AS140 insulation- thickness 1.003
Material,
    AS14O insulation_1.OO3,  !- Name
    Rough,                   !- Roughness
    1.003,                   !- Thickness {m}
    0.04,                    !- Conductivity {W/m-K}
    12,                      !- Density {kg/m3}
    200,                     !- Specific Heat {J/kg-K}
    0.9,                     !- Thermal Absorptance
    0.6,                     !- Solar Absorptance
    0.6;                     !- Visible Absorptance

! AS140 Wood flooring- thickness 0.025
Material,
    AS14O Wood flooring_.O25,!- Name
    Rough,                   !- Roughness
    0.025,                   !- Thickness {m}
    0.14,                    !- Conductivity {W/m-K}
    650,                     !- Density {kg/m3}
    1200,                    !- Specific Heat {J/kg-K}
    0.9,                     !- Thermal Absorptance
    0.6,                     !- Solar Absorptance
    0.6;                     !- Visible Absorptance

! AS140 Roof deck- thickness 0.019
Material,
    AS14O Roof deck_.O19,    !- Name
    Rough,                   !- Roughness
    0.019,                   !- Thickness {m}
    0.14,                    !- Conductivity {W/m-K}
    530,                     !- Density {kg/m3}
    900,                     !- Specific Heat {J/kg-K}
    0.9,                     !- Thermal Absorptance
    0.6,                     !- Solar Absorptance
    0.6;                     !- Visible Absorptance

! AS140 Glass wool- thickness 0.1118
Material,
    AS14O Glass wool_.1118,  !- Name
    Rough,                   !- Roughness
    0.1118,                  !- Thickness {m}
    0.04,                    !- Conductivity {W/m-K}
    12,                      !- Density {kg/m3}
    840,                     !- Specific Heat {J/kg-K}
    0.9,                     !- Thermal Absorptance
    0.6,                     !- Solar Absorptance
    0.6;                     !- Visible Absorptance

! AS140 Plasterboard- thickness 0.01
Material,
    AS14O Plasterboard_.O1,  !- Name
    Rough,                   !- Roughness
    0.01,                    !- Thickness {m}
    0.16,                    !- Conductivity {W/m-K}
    950,                     !- Density {kg/m3}
    840,                     !- Specific Heat {J/kg-K}
    0.9,                     !- Thermal Absorptance
    0.6,                     !- Solar Absorptance
    0.6;                     !- Visible Absorptance

! AS140 Wood siding- thickness 0.009
Material,
    AS14O Wood siding_.OO9,  !- Name
    Rough,                   !- Roughness
    0.009,                   !- Thickness {m}
    0.14,                    !- Conductivity {W/m-K}
    530,                     !- Density {kg/m3}
    900,                     !- Specific Heat {J/kg-K}
    0.9,                     !- Thermal Absorptance
    0.6,                     !- Solar Absorptance
    0.6;                     !- Visible Absorptance

! AS140 Glass wool- thickness 0.066
Material,
    AS14O Glass wool_.O66,   !- Name
    Rough,                   !- Roughness
    0.066,                   !- Thickness {m}
    0.04,                    !- Conductivity {W/m-K}
    12,                      !- Density {kg/m3}
    840,                     !- Specific Heat {J/kg-K}
    0.9,                     !- Thermal Absorptance
    0.6,                     !- Solar Absorptance
    0.6;                     !- Visible Absorptance

! AS140 Plasterboard- thickness 0.012
Material,
    AS14O Plasterboard_.O12, !- Name
    Rough,                   !- Roughness
    0.012,                   !- Thickness {m}
    0.16,                    !- Conductivity {W/m-K}
    950,                     !- Density {kg/m3}
    840,                     !- Specific Heat {J/kg-K}
    0.9,                     !- Thermal Absorptance
    0.6,                     !- Solar Absorptance
    0.6;                     !- Visible Absorptance


!-   ===========  ALL OBJECTS IN CLASS: WINDOWMATERIAL:GLAZING ===========

WindowMaterial:Glazing,
    10000,                   !- Name
    Spectral,                !- Optical Data Type
    AS140 AGC Glass Co. N.A. Float Glass <CLR_3.AFG>,  !- Window Glass Spectral Data Set Name
    0.003175,                !- Thickness {m}
    ,                        !- Solar Transmittance at Normal Incidence
    ,                        !- Front Side Solar Reflectance at Normal Incidence
    ,                        !- Back Side Solar Reflectance at Normal Incidence
    ,                        !- Visible Transmittance at Normal Incidence
    ,                        !- Front Side Visible Reflectance at Normal Incidence
    ,                        !- Back Side Visible Reflectance at Normal Incidence
    0,                       !- Infrared Transmittance at Normal Incidence
    0.84,                    !- Front Side Infrared Hemispherical Emissivity
    0.84,                    !- Back Side Infrared Hemispherical Emissivity
    1.06,                    !- Conductivity {W/m-K}
    1;                       !- Dirt Correction Factor for Solar and Visible Transmittance


!-   ===========  ALL OBJECTS IN CLASS: WINDOWMATERIAL:GAS ===========

WindowMaterial:Gas,
    1002,                    !- Name
    Air,                     !- Gas Type
    0.013;                   !- Thickness {m}


!-   ===========  ALL OBJECTS IN CLASS: MATERIALPROPERTY:GLAZINGSPECTRALDATA ===========

MaterialProperty:GlazingSpectralData,
    AS140 AGC Glass Co. N.A. Float Glass <CLR_3.AFG>,  !- Name
    0.3,                     !- Wavelength 1 {micron}
    0.001,                   !- Transmittance 1
    0.052,                   !- Front Reflectance 1
    0.047,                   !- Back Reflectance 1
    0.305,                   !- Wavelength 2 {micron}
    0.003,                   !- Transmittance 2
    0.05,                    !- Front Reflectance 2
    0.047,                   !- Back Reflectance 2
    0.31,                    !- Wavelength 3 {micron}
    0.015,                   !- Transmittance 3
    0.05,                    !- Front Reflectance 3
    0.047,                   !- Back Reflectance 3
    0.315,                   !- Wavelength 4 {micron}
    0.054,                   !- Transmittance 4
    0.051,                   !- Front Reflectance 4
    0.047,                   !- Back Reflectance 4
    0.32,                    !- Wavelength 5 {micron}
    0.135,                   !- Transmittance 5
    0.053,                   !- Front Reflectance 5
    0.049,                   !- Back Reflectance 5
    0.325,                   !- N21
    0.253,                   !- N22
    0.059,                   !- N23
    0.055,                   !- N24
    0.33,                    !- N25
    0.395,                   !- N26
    0.072,                   !- N27
    0.068,                   !- N28
    0.335,                   !- N29
    0.528,                   !- N30
    0.078,                   !- N31
    0.074,                   !- N32
    0.34,                    !- N33
    0.641,                   !- N34
    0.076,                   !- N35
    0.073,                   !- N36
    0.345,                   !- N37
    0.725,                   !- N38
    0.076,                   !- N39
    0.074,                   !- N40
    0.35,                    !- N41
    0.794,                   !- N42
    0.075,                   !- N43
    0.074,                   !- N44
    0.355,                   !- N45
    0.831,                   !- N46
    0.074,                   !- N47
    0.074,                   !- N48
    0.36,                    !- N49
    0.857,                   !- N50
    0.074,                   !- N51
    0.073,                   !- N52
    0.365,                   !- N53
    0.871,                   !- N54
    0.074,                   !- N55
    0.073,                   !- N56
    0.37,                    !- N57
    0.877,                   !- N58
    0.074,                   !- N59
    0.074,                   !- N60
    0.375,                   !- N61
    0.873,                   !- N62
    0.075,                   !- N63
    0.074,                   !- N64
    0.38,                    !- N65
    0.869,                   !- N66
    0.075,                   !- N67
    0.074,                   !- N68
    0.385,                   !- N69
    0.877,                   !- N70
    0.074,                   !- N71
    0.073,                   !- N72
    0.39,                    !- N73
    0.887,                   !- N74
    0.074,                   !- N75
    0.073,                   !- N76
    0.395,                   !- N77
    0.894,                   !- N78
    0.074,                   !- N79
    0.073,                   !- N80
    0.4,                     !- N81
    0.898,                   !- N82
    0.073,                   !- N83
    0.073,                   !- N84
    0.41,                    !- N85
    0.898,                   !- N86
    0.074,                   !- N87
    0.074,                   !- N88
    0.42,                    !- N89
    0.897,                   !- N90
    0.074,                   !- N91
    0.074,                   !- N92
    0.43,                    !- N93
    0.897,                   !- N94
    0.075,                   !- N95
    0.074,                   !- N96
    0.44,                    !- N97
    0.898,                   !- N98
    0.075,                   !- N99
    0.075,                   !- N100
    0.45,                    !- N101
    0.9,                     !- N102
    0.075,                   !- N103
    0.075,                   !- N104
    0.46,                    !- N105